   70
C70 / DATE: 7/ 1/2024 / Origin: Program Fullerene / C70 from database
 C            1.42871798        0.18906777        5.09234366
 C            0.65377907       -1.02928825        5.20818033
 C            1.41756882       -2.09705941        4.58889711
 C            2.55791975       -0.08903357        4.21822162
 C            2.54481843       -1.49674402        3.89445319
 C            2.49976690        0.85482270        3.12676906
 C            0.59493225        1.18093197        4.43225014
 C            1.35874123        1.72398729        3.33773458
 C           -0.68444135       -0.75428497        4.70979002
 C           -0.67872505        0.57544972        4.11565952
 C           -1.37116201       -1.76461455        4.05673823
 C            0.73595927       -2.96731507        3.65226846
 C           -0.65255148       -2.96715783        3.63880176
 C            2.46860571       -1.88655458        2.49485214
 C            1.45129108       -2.91057336        2.38011997
 C            2.72864182        0.42537289        1.82252149
 C            2.55580086       -0.92392495        1.49089834
 C            2.46478754        1.35036850        0.82724205
 C            0.68902830        2.13497578        2.19620129
 C            1.47054684        2.29972387        1.07098006
 C           -1.20286932        0.76449997        2.83240741
 C           -0.63292845        1.73113864        1.98629538
 C           -2.25938724       -1.40153134        2.96996349
 C           -2.06824344       -0.19383016        2.29737253
 C           -1.31406581       -3.46676380        2.45384412
 C           -2.45207479       -2.60121754        2.19309368
 C            0.73768325       -3.01704987        1.18668363
 C           -0.55097160       -3.54325735        1.22199690
 C            2.08147248       -1.24665166        0.21073249
 C            1.13258312       -2.26604010        0.07076464
 C            2.67057344        0.96314508       -0.48693959
 C            2.26948407       -0.32821218       -0.83303704
 C            2.60377246        1.97388559       -1.43082677
 C            0.89702928        2.91711914       -0.02214609
 C            1.73482442        3.08838561       -1.11018867
 C           -1.18933845        1.94321931        0.71379078
 C           -0.46608966        2.68481165       -0.24268685
 C           -2.49033444       -0.06797896        0.97031534
 C           -2.25186503        1.13469696        0.30151323
 C           -2.55911515       -2.46182838        0.76175221
 C           -1.47183128       -3.20464052        0.16160346
 C           -2.82140906       -1.21105401        0.22200640
 C            0.37366812       -2.33458316       -1.09890952
 C           -0.97496437       -2.69698529       -1.02365344
 C            1.67650185       -0.56203011       -2.08609154
 C            0.79938610       -1.64661529       -2.23702352
 C            2.35956371        1.63821825       -2.81160883
 C            1.81102515        0.39512250       -3.11057647
 C            1.18597322        3.59552974       -2.33989910
 C            1.79964254        2.83798574       -3.41531080
 C           -1.01378986        2.91008685       -1.51733199
 C           -0.24443773        3.51396553       -2.51577256
 C           -2.77740214        1.29305314       -0.97578857
 C           -2.18938455        2.26183723       -1.87968035
 C           -2.75801016       -1.12497500       -1.16645272
 C           -1.87176297       -1.99286012       -1.81645299
 C           -3.07061441        0.09800350       -1.74230787
 C           -0.03843113       -1.70448820       -3.34987470
 C           -1.46705456       -1.73169198       -3.11365778
 C            1.15909019        0.22661607       -4.33455367
 C            0.19809419       -0.83827828       -4.47995236
 C            0.80669632        2.69886308       -4.45699790
 C           -0.46528007        3.15750853       -3.90951629
 C            0.59376973        1.38221560       -5.01746679
 C           -2.34887240        1.75081612       -3.23565359
 C           -2.73801766        0.35151354       -3.13251944
 C           -2.04685081       -0.62199676       -3.84099748
 C           -1.07748364       -0.23371454       -4.84809538
 C           -1.47080861        2.16297434       -4.23253610
 C           -0.84117079        1.17491298       -5.09455203
