   70
C70 / DATE: 7/ 1/2024 / Origin: Program Fullerene / C70 from database
 C            1.38318136       -0.07882868        4.24616424
 C            2.39400366       -0.28553540        3.22192383
 C            2.33849695       -1.68952514        2.85752071
 C            0.53132802       -1.25864500        4.26327764
 C            1.01749973       -2.16069417        3.23350322
 C           -0.84933814       -0.81815896        4.21499329
 C            0.52896289        1.09063801        4.16593363
 C           -0.85298422        0.63764135        4.22304505
 C            0.88263788        2.11840531        3.30141848
 C            2.56643981        0.67341209        2.22270881
 C            1.99932112        1.93245351        2.38341531
 C            3.03798570        0.28142474        0.96620231
 C            2.84871168       -2.07060039        1.63133695
 C            3.41785323       -1.04781364        0.77623727
 C            2.02285082       -2.89457321        0.77135809
 C            0.14260347       -2.60585267        2.24134503
 C            0.64207890       -2.90305239        0.96939984
 C           -1.73988541       -1.50327724        3.39862830
 C           -1.23074143       -2.46303535        2.42632087
 C           -2.84553012       -0.79058488        2.78154542
 C           -1.83826521        1.33051990        3.52615335
 C           -2.89310261        0.59847925        2.84253734
 C           -0.15076991        2.86431747        2.60038949
 C           -1.47642546        2.46871988        2.69352657
 C            1.74827649        2.75192730        1.21670323
 C            0.38381395        3.24815486        1.30694276
 C            2.90047143        1.13009971       -0.14254301
 C            2.22268603        2.34907124       -0.02475916
 C            3.29205799        0.68204086       -1.40612474
 C            3.45072427       -1.60522156       -0.56358018
 C            2.56003004       -2.75873306       -0.57116672
 C            3.46727087       -0.73982661       -1.64523441
 C            1.71967291       -2.97299473       -1.65207913
 C           -0.21612558       -2.91112364       -0.13747671
 C            0.29598892       -3.13351575       -1.41106527
 C           -2.10152358       -2.42433956        1.26638846
 C           -3.16298693       -1.46983645        1.53643160
 C           -1.53703216       -2.48548717       -0.00300406
 C           -3.70064557       -0.75228240        0.47976625
 C           -3.26540375        1.36123207        1.66140668
 C           -2.28481888        2.41836350        1.48682162
 C           -3.74376526        0.70321679        0.54009093
 C           -0.41927358        3.20224241        0.16927160
 C           -1.68543206        2.60979766        0.23990637
 C            1.61716236        2.91136148       -1.14659896
 C            0.22020663        3.30755772       -1.05896040
 C            2.68589025        1.25429911       -2.59661832
 C            1.84408410        2.34813747       -2.46469444
 C            2.73604282       -1.08185133       -2.85509805
 C            1.88076342       -2.17910935       -2.85882442
 C            2.32291199        0.16131968       -3.48732437
 C           -0.41363407       -2.59872971       -2.55808199
 C            0.57693821       -2.07653628       -3.49179725
 C           -2.20984339       -1.92285434       -1.09503054
 C           -3.32521102       -1.11435613       -0.87572808
 C           -1.61165407       -1.91621035       -2.35906127
 C           -3.36926383        1.19732954       -0.77235301
 C           -2.27823966        2.05711483       -0.90532586
 C           -3.49638236        0.07693105       -1.68325112
 C           -0.44640900        2.84783557       -2.25898520
 C            0.58046998        2.38540368       -3.18416983
 C           -1.64726291        2.15608120       -2.14906908
 C            1.12932280        0.21297293       -4.20090009
 C            0.27119702       -0.96151049       -4.26130205
 C            0.27623881        1.38795589       -4.10140338
 C           -2.04297840       -0.99598181       -3.31568352
 C           -2.84093711        0.14288162       -2.89779927
 C           -2.05566194        1.32702284       -3.19482774
 C           -1.10401163       -0.50423116       -4.30916915
 C           -1.10063727        0.94854648       -4.22352375
