   70
C70 / DATE: 7/ 1/2024 / Origin: Program Fullerene / C70 from database
 C            1.56939881       -0.01047126        4.67443386
 C            0.76193927       -1.19808426        4.49851711
 C            1.30888295       -1.96836324        3.39073018
 C            2.64848159       -0.07221655        3.70849018
 C            2.44903689       -1.23923963        2.87331819
 C            2.70507663        1.21388335        3.04895590
 C            0.73624790        1.12948305        4.32554995
 C            1.45543608        1.90322455        3.34527267
 C           -0.61632209       -0.76234090        4.39555537
 C           -0.57122794        0.62768187        3.96649631
 C           -1.48327751       -1.60747260        3.73410349
 C            0.40506597       -2.55273192        2.50790981
 C           -0.89889624       -2.69826949        2.97309655
 C            0.63415644       -2.47227061        1.12192666
 C            2.58099589       -1.07304409        1.50467073
 C            1.75427593       -1.78915181        0.63389984
 C            3.15552201        1.25882152        1.73439117
 C            3.26162720        0.05113947        1.03308477
 C            2.83747623        2.40839246        1.02082871
 C            0.76240508        2.46590251        2.27999981
 C            1.55428755        3.03145109        1.29257565
 C           -1.12018612        0.97728796        2.72784058
 C           -0.49914698        1.95211129        1.92543421
 C           -2.45538104       -1.01819439        2.84065750
 C           -2.12535579        0.16785259        2.18759624
 C           -1.92432947       -3.14933448        2.06783452
 C           -2.96573742       -2.12749169        2.06893379
 C           -0.32078102       -2.96508014        0.21863068
 C           -1.57068672       -3.37772992        0.68706668
 C           -0.17906500       -2.72589056       -1.15455602
 C            1.95186907       -1.66090236       -0.74257042
 C            0.91611067       -1.98864033       -1.62918586
 C            3.62594727        0.07405662       -0.30626658
 C            3.05209971       -0.92709510       -1.18614579
 C            3.06790419        2.45036027       -0.41022951
 C            3.62045058        1.33973664       -1.02413391
 C            0.96446248        3.40291497        0.03179330
 C            1.92747966        3.12040209       -1.02183784
 C           -1.05381391        2.26527232        0.67249310
 C           -0.37105426        3.12904595       -0.20091970
 C           -2.55174400        0.38304494        0.87456057
 C           -2.18359629        1.56134422        0.23084209
 C           -3.32607268       -1.90145357        0.68979116
 C           -2.74929263       -2.99724309       -0.06103830
 C           -3.22314608       -0.62212282        0.15535210
 C           -1.28276614       -2.95332331       -1.98267491
 C           -2.61400198       -2.83111234       -1.42199448
 C           -1.34377303       -2.32631936       -3.28373387
 C            0.93044033       -1.50528893       -2.95392499
 C           -0.24198521       -1.49645874       -3.69193980
 C            3.04481057       -0.36751334       -2.51743168
 C            3.27594197        1.06339022       -2.40235826
 C            1.86783661       -0.55552630       -3.32562814
 C            1.45533458        2.72295386       -2.27470383
 C            2.13944184        1.74716722       -2.99831572
 C            1.38743484        0.75247956       -3.74593222
 C           -0.80726837        3.28185232       -1.50950060
 C            0.12266087        2.98093006       -2.58900899
 C           -2.76434387        1.85604353       -0.99851435
 C           -2.10837385        2.78757360       -1.88595888
 C           -3.35646044       -0.49964999       -1.22905552
 C           -3.18259358       -1.63694018       -2.02208287
 C           -2.55056426       -1.51150229       -3.32069123
 C           -3.26910048        0.76309674       -1.80677167
 C           -0.77092577       -0.21240696       -4.12476341
 C            0.01842201        0.92782164       -3.94553186
 C           -0.57189369        2.12479098       -3.53798642
 C           -1.98291281        2.15653585       -3.18982570
 C           -2.19033394       -0.19096712       -3.79620490
 C           -2.72254907        0.91379836       -3.15121521
