   70
C70 / DATE: 7/ 1/2024 / Origin: Program Fullerene / C70 from database
 C            1.53768181       -0.02104712        4.60721187
 C            0.73050746       -1.21813369        4.53365119
 C            1.22983213       -2.04572580        3.44456445
 C            2.60898122       -0.16667106        3.64458938
 C            2.39101355       -1.38620102        2.88958367
 C            2.67060257        1.06694709        2.89502604
 C            0.70342637        1.08586002        4.16394605
 C            1.39814971        1.74183753        3.08142148
 C           -0.64929006       -0.78683791        4.46184976
 C           -0.62073354        0.56085908        3.91164452
 C           -1.54101857       -1.67770154        3.90391512
 C            0.29026305       -2.62155039        2.59744228
 C           -0.98483194       -2.77822561        3.13173585
 C            0.43927899       -2.48853080        1.20331777
 C            2.54510600       -1.31273331        1.51357852
 C            1.60060129       -1.91202453        0.67054909
 C            3.14206823        1.00264921        1.59651064
 C            3.30556197       -0.25872320        1.01574331
 C            2.77894687        2.04337507        0.75727263
 C            0.69556794        2.11143320        1.93775360
 C            1.45417931        2.49568880        0.83153727
 C           -1.23131014        0.80190583        2.67637396
 C           -0.60257233        1.61972737        1.72425415
 C           -2.58616859       -1.14410700        3.06422581
 C           -2.30307443       -0.01130537        2.29293181
 C           -2.04739787       -3.25973826        2.28638423
 C           -3.14908952       -2.31651519        2.43428426
 C           -0.61545793       -2.83840111        0.34129932
 C           -1.78949696       -3.38125133        0.87147829
 C           -0.60160831       -2.40689827       -0.99787650
 C            1.69368056       -1.69529601       -0.70987743
 C            0.54300736       -1.77153921       -1.49994132
 C            3.68321536       -0.31507127       -0.31757483
 C            2.83489891       -1.07209292       -1.22266411
 C            3.48684330        2.15497265       -0.42833804
 C            4.03368442        0.93074876       -0.97937152
 C            2.92615839        2.92230659       -1.51618499
 C            0.79363090        2.91589390       -0.32117531
 C            1.54008562        3.33381849       -1.42036517
 C           -1.19347046        1.79599143        0.46990880
 C           -0.55790379        2.60104048       -0.48003008
 C           -2.85886753        0.12309892        1.01301058
 C           -2.31643748        1.04022569        0.10946797
 C           -3.75311038       -2.16461002        1.13923320
 C           -3.04661266       -3.06242882        0.23948395
 C           -3.71835470       -0.85756977        0.51768160
 C           -1.80093062       -2.38783030       -1.73641735
 C           -2.99839164       -2.40371709       -1.03687042
 C           -3.69274701       -1.13386034       -0.89846910
 C           -1.84971454       -1.67791692       -2.92730629
 C            0.51152472       -1.12958543       -2.74548715
 C           -0.62774005       -1.20294819       -3.52665074
 C            2.74325132       -0.32751189       -2.46916498
 C            3.60194335        0.83767293       -2.35859764
 C            3.06493805        2.12920842       -2.72942429
 C            1.50248356       -0.20782160       -3.08232400
 C            0.98439214        3.18829812       -2.74865790
 C            1.78603829        2.16683232       -3.40201017
 C            1.16285979        0.97571966       -3.76208535
 C           -1.19225731        2.86328033       -1.69266036
 C           -0.39142853        3.11072010       -2.88559119
 C           -2.76924739        1.04413166       -1.21911458
 C           -3.30480272       -0.12946689       -1.76743575
 C           -2.79413857       -0.57628577       -2.97985389
 C           -2.33225978        2.05065347       -2.07996537
 C           -0.97920110       -0.05792473       -4.34401036
 C           -0.10505292        1.09528985       -4.32038359
 C           -0.90608685        2.24684576       -3.93205820
 C           -2.30339869        0.38671814       -3.93425896
 C           -2.20019957        1.76204879       -3.50066553
