   70
C70 / DATE: 7/ 1/2024 / Origin: Program Fullerene / C70 from database
 C            1.53985187        0.18105726        4.98782507
 C            0.73718711       -1.02543617        5.04593527
 C            1.47161127       -2.07299530        4.36386640
 C            2.64390651       -0.06355851        4.07131366
 C            2.62885402       -1.46271123        3.72334531
 C            2.55290109        0.90966534        3.00157190
 C            0.71615623        1.22930118        4.41250788
 C            1.45225218        1.80112227        3.31187245
 C           -0.59979297       -0.69676145        4.58092995
 C           -0.59446508        0.68545206        4.12662752
 C           -1.30178309       -1.63280986        3.83818130
 C            0.77991176       -2.86812615        3.36409885
 C           -0.59970115       -2.77348418        3.25316078
 C            2.59469966       -1.82093177        2.31979965
 C            1.57818907       -2.84137419        2.15307579
 C            2.71252505        0.51958141        1.66662479
 C            2.71620171       -0.84294599        1.32793087
 C            2.33615668        1.44737355        0.68842770
 C            0.74486683        2.29407851        2.23302906
 C            1.46225531        2.46986051        1.06519198
 C           -1.19391318        1.01242759        2.90709502
 C           -0.62173107        2.01035999        2.11069692
 C           -2.24115459       -1.16010956        2.84062525
 C           -2.12244439        0.13784529        2.33950974
 C           -1.21563509       -3.04167285        1.96459566
 C           -2.43350831       -2.25774270        1.91384496
 C            0.95921336       -2.92694997        0.91318069
 C           -0.42460630       -3.12750474        0.81928212
 C            2.37774076       -1.21054651        0.02320109
 C            1.62649936       -2.37305302       -0.17075520
 C            2.42355011        1.09293535       -0.65909623
 C            2.44855013       -0.26100967       -0.99677962
 C            2.10872726        2.04353700       -1.63276479
 C            0.86479915        3.24416582        0.09237843
 C            1.31592067        3.13008366       -1.27537353
 C           -1.26603634        2.39846353        0.92983172
 C           -0.58420838        3.27379134        0.07918276
 C           -2.65748037        0.42372058        1.08166112
 C           -2.29386996        1.59906283        0.41718104
 C           -2.98046170       -1.97458170        0.67763078
 C           -3.30184269       -0.59435918        0.37589407
 C           -1.04282396       -3.01516897       -0.43306516
 C           -2.34441945       -2.51709459       -0.51194313
 C            1.16014845       -2.68092207       -1.43487069
 C           -0.24879673       -2.99584135       -1.57733388
 C            2.22032444       -0.65550376       -2.31791334
 C            1.54930893       -1.85238464       -2.55722874
 C            2.20542113        1.70000486       -2.97639561
 C            2.26530961        0.29541204       -3.33272493
 C            1.33565932        2.36728783       -3.93375262
 C            0.19758782        3.51773043       -2.12017171
 C           -1.00422343        3.44783303       -1.30080884
 C            0.16989794        3.07288709       -3.43431702
 C           -2.79697822        1.84060464       -0.86491860
 C           -2.11197369        2.75776486       -1.76119366
 C           -3.42059581       -0.50697668       -1.06622584
 C           -2.71931669       -1.65250483       -1.62454168
 C           -3.27243911        0.72672462       -1.66825717
 C           -0.72473734       -2.31237823       -2.77060947
 C            0.44842062       -1.88130549       -3.50790265
 C           -1.82903270       -1.46995334       -2.67994617
 C            1.42750295        0.09912782       -4.50533657
 C            0.88125977        1.38410528       -4.89806062
 C            0.32687442       -0.84012118       -4.41126594
 C           -1.01305218        2.38532816       -3.93644651
 C           -2.08788749        2.15467262       -3.08626116
 C           -2.60804097        0.80291665       -2.95579413
 C           -1.85359973       -0.27913428       -3.41466289
 C           -0.56457020        1.29805444       -4.78816335
 C           -0.90512018       -0.06638534       -4.41622609
