   70
C70 / DATE: 7/ 1/2024 / Origin: Program Fullerene / C70 from database
 C            1.52265478        0.07843044        4.87719654
 C            0.73440072       -1.11950883        4.65584224
 C            1.42557755       -1.94737006        3.68376309
 C            2.69499130        0.00074045        4.02573391
 C            2.64400472       -1.25118791        3.29218419
 C            2.77081513        1.23253027        3.27079926
 C            0.73106579        1.21202152        4.42951755
 C            1.49044104        1.91044942        3.41525816
 C           -0.61976385       -0.70478461        4.36048738
 C           -0.58599219        0.72399884        4.08258172
 C           -1.37809494       -1.51409511        3.52965093
 C            0.68289842       -2.61063616        2.70793968
 C           -0.71233698       -2.54538279        2.74070165
 C            1.32017653       -2.97467303        1.52650121
 C            3.03164915       -1.26862077        1.95309395
 C            2.53730302       -2.27923862        1.13534069
 C            3.34658930        1.18550431        2.01119674
 C            3.55068791       -0.10958504        1.37064041
 C            2.85118047        2.08848549        0.99027548
 C            0.83950365        2.35781462        2.26864828
 C            1.61819600        2.70893825        1.16753807
 C           -1.19941496        1.19277847        2.92391331
 C           -0.53087450        2.10663852        2.09347977
 C           -2.36122306       -0.88977619        2.66547804
 C           -2.28567857        0.47834806        2.42219883
 C           -1.48025252       -2.72214668        1.51276485
 C           -2.58983956       -1.78846718        1.54800962
 C            0.54114358       -3.22018935        0.32285386
 C           -0.82268037       -2.94082146        0.30736057
 C            2.50312230       -2.09916234       -0.30769069
 C            1.35680428       -2.83198838       -0.81319668
 C            3.44619384        0.09271861       -0.07051652
 C            3.15829619        1.49590199       -0.29936020
 C            2.81679713       -0.86129945       -0.86229847
 C            2.38154363        1.84878095       -1.39319560
 C            1.00390778        3.26779499        0.05769376
 C            1.50822452        2.92683271       -1.26176736
 C           -1.17975775        2.60239827        0.95588031
 C           -0.44429390        3.27143439       -0.01790596
 C           -2.98630879        0.98787695        1.34010577
 C           -2.44560043        2.12792623        0.62529128
 C           -3.05386460       -1.25689303        0.35366457
 C           -3.50811246        0.06061168        0.35041426
 C           -1.42174973       -2.52813294       -0.88804410
 C           -2.63674886       -1.82860499       -0.84650855
 C            0.72566568       -2.36841035       -1.95282310
 C           -0.65260764       -2.52062940       -2.05662126
 C            2.18849339       -0.46535364       -2.04832495
 C            2.13257155        0.89648814       -2.37928580
 C            1.35039045       -1.37620273       -2.70035659
 C            1.43429321        1.30167122       -3.51327959
 C            0.41036835        3.08005661       -2.20066034
 C           -0.81549675        3.13375206       -1.42114412
 C            0.42868194        2.34145699       -3.37144527
 C           -2.81835335        1.98935593       -0.77744865
 C           -3.61479287        0.78015950       -0.90702751
 C           -1.89576405        2.32413316       -1.76670461
 C           -3.19189942       -1.34163593       -2.02650308
 C           -3.55810997        0.06348717       -2.09015376
 C           -1.25552284       -2.26337546       -3.28237350
 C           -2.58317691       -1.68920259       -3.29531419
 C            0.83415181       -1.06939270       -3.95396585
 C            0.89891180        0.30038836       -4.41439470
 C           -0.47750789       -1.58768135       -4.30846879
 C           -0.81759702        1.78865502       -3.86461688
 C           -1.89145513        1.63168390       -2.98438172
 C           -2.84092954        0.63256595       -3.21435437
 C           -2.53137169       -0.47838191       -4.09923191
 C           -0.45092386        0.71034121       -4.76785068
 C           -1.27360000       -0.48031965       -4.81678459
