   70
C70 / DATE: 7/ 1/2024 / Origin: Program Fullerene / C70 from database
 C            1.53098456        0.02395723        4.74476110
 C            0.73555484       -1.15795313        4.48751698
 C            1.34296774       -1.89425486        3.38999689
 C            2.67598144       -0.02124423        3.85841499
 C            2.51986226       -1.15893660        2.96645340
 C            2.80023467        1.29092314        3.26170271
 C            0.72995505        1.17430405        4.35679702
 C            1.50627423        1.94048370        3.40940288
 C           -0.63331230       -0.71853139        4.32144246
 C           -0.56897097        0.68564121        3.94491782
 C           -1.46538138       -1.53585947        3.58362458
 C            0.49637855       -2.44400253        2.43231875
 C           -0.84976558       -2.56786100        2.76138171
 C            0.85080306       -2.38672276        1.08194943
 C            2.75581804       -0.96809881        1.60884375
 C            1.94890624       -1.61541128        0.67020807
 C            3.41072367        1.36862669        2.02169647
 C            3.48594123        0.15520476        1.21585280
 C            2.98834332        2.42268778        1.12040104
 C            0.88920547        2.43839098        2.26668776
 C            1.71363099        2.96799683        1.27797760
 C           -1.09057268        1.07927053        2.70899937
 C           -0.39746106        1.99838837        1.91141633
 C           -2.43954126       -0.90496711        2.72362360
 C           -2.12500266        0.32464799        2.14740093
 C           -1.80606634       -2.88892952        1.71952629
 C           -2.92528719       -1.96706200        1.87422320
 C           -0.00729498       -2.93827896        0.12133889
 C           -1.35101141       -3.18039389        0.43687271
 C            0.41848415       -3.00544538       -1.20306518
 C            2.15163550       -1.36535871       -0.68850267
 C            1.51914217       -2.16187800       -1.62876538
 C            3.47889922        0.56381557       -0.18110433
 C            3.42610155        2.01545593       -0.20201199
 C            2.71790305       -0.15814677       -1.09272086
 C            2.87206503        2.64787930       -1.30093091
 C            1.12293842        3.60511528        0.19659691
 C            1.84644113        3.64712439       -1.06097562
 C           -0.90781013        2.32739374        0.65275703
 C           -0.26508081        3.29980489       -0.10107963
 C           -2.55784766        0.58960551        0.84298138
 C           -1.84737016        1.49109955        0.04769411
 C           -3.64003059       -1.61623023        0.74618814
 C           -3.50365176       -0.25086627        0.25819832
 C           -2.30486190       -3.23779783       -0.57942873
 C           -3.53836480       -2.49312759       -0.40154788
 C           -0.55583114       -3.04505788       -2.28056519
 C           -1.90701107       -3.09781119       -1.96915093
 C            1.17924884       -1.58734160       -2.91781890
 C           -0.09023126       -2.16425516       -3.34066379
 C            2.28076342        0.45814339       -2.27051413
 C            2.42629318        1.83966365       -2.42319361
 C            1.45688465       -0.24154451       -3.15725317
 C            0.87687222        3.55312412       -2.13367941
 C           -0.42925382        3.30976087       -1.54187337
 C            1.38180619        2.59170114       -3.09673505
 C           -2.01774849        1.50178942       -1.34970765
 C           -1.25318173        2.36749009       -2.14624496
 C           -3.63087827       -0.28715586       -1.18525211
 C           -3.73779130       -1.68287732       -1.58294907
 C           -2.83978194       -2.17738803       -2.61092198
 C           -2.85298805        0.55801739       -1.96578056
 C           -1.00482407       -1.38340095       -4.03525451
 C           -2.36375452       -1.26078872       -3.53574188
 C           -2.58455945        0.15059844       -3.27135128
 C            0.67663462        0.47288362       -4.06600480
 C            0.45158834        1.88759254       -3.83825844
 C           -0.94482896        2.00158551       -3.45643646
 C           -0.60274070       -0.06599270       -4.49171477
 C           -1.62517666        0.88080466       -4.06296620
