   70
C70 / DATE: 7/ 1/2024 / Origin: Program Fullerene / C70 from database
 C            1.34719797       -0.12701867        4.16471686
 C            2.45368630       -0.25969829        3.23208773
 C            2.41569375       -1.61378445        2.70320593
 C            0.48420698       -1.28584360        3.99748920
 C            1.13570006       -2.19154096        3.08450850
 C           -0.83575827       -0.81024131        3.65836312
 C            0.51302279        1.05666542        4.10412071
 C           -0.86435522        0.61312292        3.94623763
 C            0.96623668        2.15782354        3.39019987
 C            2.77401940        0.79595647        2.38361539
 C            2.13711344        2.02927959        2.53172691
 C            3.45598145        0.52341721        1.20232854
 C            2.91261676       -1.87437136        1.42527966
 C            3.53392454       -0.84688273        0.71469471
 C            2.39226492       -2.96369181        0.72428217
 C            0.39039111       -2.82967845        2.10511330
 C            1.12633239       -3.52933519        1.16147336
 C           -1.45927772       -1.28302479        2.50474074
 C           -0.87925839       -2.32699059        1.75817986
 C           -2.53115306       -0.55487419        1.98240094
 C           -1.76985175        1.41118498        3.26235084
 C           -2.68225238        0.78857099        2.31937135
 C            0.01137911        3.02314630        2.71708161
 C           -1.33446637        2.67406762        2.68529657
 C            1.92781611        2.87267447        1.36374593
 C            0.65207587        3.54839192        1.52178930
 C            3.27587676        1.39707121        0.05274261
 C            2.32570874        2.41281385        0.11082384
 C            3.42255222       -0.80551249       -0.73691860
 C            3.40687431        0.58788277       -1.14507617
 C            2.36639104       -2.93542867       -0.72966421
 C            2.61332207       -1.73549087       -1.38339341
 C            0.46180742       -4.08349818        0.00854345
 C            1.26754273       -3.76876588       -1.16103911
 C           -1.55030421       -2.82826903        0.62887768
 C           -0.89411978       -3.66882159       -0.26395758
 C           -3.18903286       -1.01565486        0.85302962
 C           -2.70459112       -2.20120944        0.17889969
 C           -3.59322559       -0.05487845       -0.16158318
 C           -2.96704697        1.74945637        1.26539473
 C           -2.11507752        2.90598767        1.47903956
 C           -3.20456993        1.27688584       -0.02444376
 C           -0.10745177        3.82881791        0.39663864
 C           -1.53118032        3.52623444        0.38643307
 C            1.59030220        2.75291691       -1.03115972
 C            0.42486886        3.50467533       -0.91473335
 C            2.70949149        0.94809263       -2.28257311
 C            1.84567716        2.11549098       -2.24245965
 C            1.81157273       -1.33518561       -2.46462872
 C            2.02148363       -0.08150777       -3.03913425
 C            0.37984520       -3.26350490       -2.18189678
 C           -0.98195644       -3.39033123       -1.68787571
 C            0.72430722       -2.11758873       -2.88790217
 C           -2.90332635       -2.01756570       -1.25366862
 C           -3.52221202       -0.71184417       -1.45203790
 C           -1.94293427       -2.49480104       -2.14995283
 C           -3.20892235        0.03728946       -2.57213916
 C           -2.72126953        1.98519878       -1.13371161
 C           -1.88159971        3.08204550       -0.95017014
 C           -0.70026767        3.21300123       -1.78803258
 C           -2.76253741        1.40982617       -2.40282042
 C            0.75031682        1.88744158       -3.17492083
 C            0.94741126        0.56867077       -3.76574581
 C           -0.53392557        2.33704768       -2.85678642
 C           -1.64748029        1.63387666       -3.31219219
 C           -0.27239478       -1.54878632       -3.67810762
 C           -1.66262455       -1.77779886       -3.31292955
 C           -2.40592354       -0.56893931       -3.61443741
 C           -0.14999328       -0.18053953       -4.15097182
 C           -1.46467053        0.42787382       -4.09775925
