   70
C70 / DATE: 7/ 1/2024 / Origin: Program Fullerene / C70 from database
 C            1.26641090       -0.02588661        4.33657916
 C            2.51958706       -0.30217283        3.67601846
 C            2.41018685       -1.60231014        3.03218146
 C            0.41618016       -1.19405477        4.17817080
 C            1.06386837       -2.09204623        3.24478097
 C           -0.92195156       -0.73262261        3.86088802
 C            0.50439104        1.13408117        3.91785198
 C           -0.88409324        0.72121611        3.77083580
 C            1.04081978        2.03908578        3.00310948
 C            2.99371174        0.63548190        2.68116454
 C            2.33021857        1.84462867        2.47426189
 C            2.88766885       -1.46538222        1.66955319
 C            3.41987613       -0.12628421        1.51815721
 C            2.13398851       -1.98969129        0.63430825
 C            0.33084599       -2.53635806        2.15188662
 C            0.95878304       -2.69422139        0.91258774
 C           -1.67153465       -1.43625010        2.92538494
 C           -1.06016454       -2.46920580        2.20432210
 C           -2.77292374       -0.78942451        2.37932126
 C           -1.69907528        1.36975835        2.83987346
 C           -2.73140799        0.65545958        2.23239264
 C            0.15672181        2.92144377        2.38774124
 C           -1.23583737        2.53315672        2.22720913
 C            0.55284968        3.64878001        1.19867454
 C            2.74783604        2.59240185        1.37457673
 C            1.87203199        3.58977932        0.78665937
 C            3.36601672        0.49931807        0.27388854
 C            3.40319115        1.88895776        0.28265322
 C            2.34268814       -1.49421395       -0.64499404
 C            2.77602250       -0.17333943       -0.81203869
 C            1.79482593       -2.18820685       -1.71109736
 C            0.24469510       -3.27158503       -0.14044032
 C            0.72005722       -3.13019178       -1.44636284
 C           -1.78496599       -3.15222809        1.23432148
 C           -1.07411086       -3.66892304        0.07634689
 C           -3.42005488       -1.33916648        1.20391563
 C           -3.04725205       -2.60096048        0.76799034
 C           -3.10465916        0.96432461        0.85919318
 C           -3.55137182       -0.26240383        0.23078825
 C           -1.61710461        2.81836003        0.85065377
 C           -0.51462427        3.51031911        0.21553086
 C           -2.33916414        1.87026366        0.13666492
 C           -0.20608319        3.22355716       -1.10826152
 C            2.16526375        3.64995938       -0.63346725
 C            3.14715192        2.61785553       -0.93456808
 C            1.07859056        3.49006746       -1.58190331
 C            2.49638773        0.50711889       -2.01187797
 C            2.66906163        1.88876815       -2.08855400
 C            1.60862572        2.68977079       -2.66942516
 C            1.48633612       -1.47980328       -2.93571187
 C            1.72711634       -0.11140734       -3.00346827
 C           -0.21040502       -3.07081281       -2.56573582
 C            0.25193800       -2.03616844       -3.47661328
 C           -2.00970457       -3.69341617       -1.03333741
 C           -3.16844884       -2.90705301       -0.64458922
 C           -1.57164787       -3.22010965       -2.33370143
 C           -3.23583780       -0.49857539       -1.10119136
 C           -3.27780353       -1.80732924       -1.58351886
 C           -2.48933900       -2.16742529       -2.74813929
 C           -1.99851112        1.59012377       -1.19317086
 C           -1.04907500        2.39306778       -1.85083973
 C           -2.58445015        0.48899851       -1.84377679
 C            0.71235050        2.06133756       -3.51135195
 C            0.96581336        0.67894973       -3.86625914
 C           -0.69638590        2.12574362       -3.17152830
 C           -0.67424009       -1.19610307       -4.08233380
 C           -2.03651984       -1.15176115       -3.57591190
 C           -2.29199042        0.22034488       -3.17817732
 C           -0.29000744        0.16891239       -4.38425515
 C           -1.34136292        1.04570250       -3.88383575
