   70
C70 / DATE: 7/ 1/2024 / Origin: Program Fullerene / C70 from database
 C            1.65006449        0.07562196        4.57700023
 C            0.82116358       -1.10977642        4.45428370
 C            1.45146596       -1.99443387        3.49423959
 C            2.68617762        0.00015277        3.56077475
 C            2.59757180       -1.29394359        2.92996896
 C            2.57622864        1.16892572        2.72072940
 C            0.82068371        1.22521138        4.27009552
 C            1.47854819        1.97852323        3.21968419
 C           -0.54123811       -0.68424768        4.20798137
 C           -0.52991009        0.75839502        4.02151719
 C           -1.32944293       -1.45986099        3.37437091
 C            0.65567054       -2.75425266        2.63832199
 C           -0.73204166       -2.57696009        2.65012157
 C            1.25963244       -3.27184397        1.49655257
 C            2.82026327       -1.40100260        1.56206875
 C            2.43933611       -2.59784414        0.97662366
 C            2.70456635        1.02953229        1.34284977
 C            2.87042235       -0.24337251        0.76692513
 C            2.25329016        2.08039656        0.54814743
 C            0.68439822        2.62630366        2.28248277
 C            1.24923900        2.91885193        1.04206110
 C           -1.22217225        1.32312506        2.95314130
 C           -0.70312152        2.47768104        2.36680652
 C           -2.26037994       -0.80440459        2.47428846
 C           -2.15907260        0.56388000        2.24314037
 C           -1.50062504       -2.75941256        1.42426273
 C           -2.47705154       -1.68786598        1.34548051
 C            0.44516618       -3.64937781        0.35548087
 C           -0.85944623       -3.17576991        0.26336852
 C            2.41995290       -2.71800344       -0.46371810
 C            1.31014732       -3.59502122       -0.80858510
 C            2.90258807       -0.36050693       -0.63326547
 C            2.67641255       -1.59904004       -1.24734056
 C            2.54432694        2.06018437       -0.80827603
 C            2.92027567        0.79674078       -1.41312424
 C            1.68440601        2.76362556       -1.74650614
 C            0.54408025        3.74891802        0.17664433
 C            0.68098355        3.57931488       -1.25956805
 C           -1.50257997        3.17398329        1.47014346
 C           -0.85736354        3.99188665        0.45886456
 C           -2.72002601        1.09011660        1.07715075
 C           -2.58972133        2.45692102        0.83028669
 C           -2.75736825       -1.12862594        0.10841705
 C           -3.08765732        0.22780346        0.03735379
 C           -1.36064232       -2.77763382       -0.97950800
 C           -2.37411595       -1.81502053       -1.04588549
 C            0.73369045       -3.47728775       -2.06191899
 C           -0.67966563       -3.14916460       -2.14181844
 C            2.35442256       -1.65790600       -2.60335540
 C            1.42252970       -2.67653588       -3.05703097
 C            2.35414466        0.77623221       -2.75189357
 C            1.37599419        1.84413684       -2.82356053
 C            2.05024841       -0.43931671       -3.33068410
 C            0.04515964        1.54212803       -3.11620536
 C           -0.65399066        3.46510754       -1.82191150
 C           -1.59699887        3.84152891       -0.78168326
 C           -2.73077234        2.97230230       -0.52390227
 C           -0.97213846        2.39505607       -2.65903076
 C           -3.52567374        0.76044922       -1.17110773
 C           -3.13343471        2.10902055       -1.52924175
 C           -2.30475024        1.99220552       -2.71854546
 C           -2.79719074       -1.35063557       -2.28745492
 C           -3.41223294       -0.03984716       -2.37595072
 C           -2.64658449        0.73555628       -3.34412235
 C           -0.88877262       -2.40681114       -3.37577334
 C            0.41838285       -2.02679961       -3.88137835
 C            0.75078507       -0.61364848       -3.95858479
 C           -0.25956554        0.32513715       -3.74583592
 C           -1.90598868       -1.46840213       -3.42470320
 C           -1.58068312       -0.11037955       -3.83015963
