   70
C70 / DATE: 7/ 1/2024 / Origin: Program Fullerene / C70 from database
 C            1.49855699        0.12860719        4.83495824
 C            0.70798187       -1.06926818        4.62874724
 C            1.43833169       -1.95015696        3.73460780
 C            2.69823125        0.01240063        4.02562887
 C            2.64882837       -1.25438607        3.31793735
 C            2.82218259        1.22722683        3.25020311
 C            0.73139991        1.25069905        4.32154765
 C            1.56561486        1.95331997        3.37155757
 C           -0.62376664       -0.65528477        4.24008260
 C           -0.54816228        0.74814008        3.86427895
 C           -1.34934563       -1.50823804        3.42960552
 C            0.72577277       -2.68757558        2.79167246
 C           -0.66921003       -2.63732383        2.80460640
 C            1.38377789       -3.08860520        1.63362671
 C            3.03352534       -1.30443648        1.97788806
 C            2.55196205       -2.34396475        1.18826704
 C            3.41034275        1.14428202        1.99594022
 C            3.54502434       -0.16045341        1.35759560
 C            2.98713142        2.08183089        0.97088732
 C            0.98687607        2.45999615        2.21448036
 C            1.84103562        2.84161249        1.18399546
 C           -1.01723202        1.14565633        2.61109149
 C           -0.34843121        2.14978302        1.90826967
 C           -2.21075456       -0.93183052        2.41727162
 C           -1.95025755        0.35095871        1.94414599
 C           -1.42387696       -2.97610298        1.60643341
 C           -2.48163916       -1.98447800        1.46308384
 C            0.62603051       -3.47688740        0.45369501
 C           -0.76674129       -3.43173343        0.46520680
 C            2.44077835       -2.16345600       -0.25083525
 C            1.34526609       -2.98942937       -0.71520995
 C            3.36153855        0.02686484       -0.07813885
 C            3.16031393        1.43917316       -0.32236313
 C            2.62313215       -0.89981848       -0.79744720
 C            2.34106108        1.84972275       -1.36657013
 C            1.29267634        3.49308888        0.09260419
 C            1.74996407        3.09978493       -1.22645002
 C           -0.89038057        2.61976173        0.71114915
 C           -0.14981277        3.56094538        0.00469508
 C           -2.32793053        0.67232792        0.63859808
 C           -1.85549041        1.84938841        0.04427983
 C           -2.88934487       -1.63399635        0.18728261
 C           -3.00799281       -0.27981729       -0.12907376
 C           -1.43755468       -3.35372833       -0.75415000
 C           -2.63803282       -2.54111580       -0.83411805
 C            0.62046315       -2.59064027       -1.82726222
 C           -0.67354596       -3.07918541       -1.95819943
 C            1.79031035       -0.47323062       -1.83596274
 C            1.71836056        0.88873471       -2.17746858
 C            0.97168526       -1.40695545       -2.48028870
 C            0.87446273        1.30562478       -3.21939986
 C            0.72971723        3.51236305       -2.15952712
 C           -0.46182673        3.82888058       -1.38058319
 C            0.32717986        2.58788073       -3.19424941
 C           -2.29800519        2.21281329       -1.23889904
 C           -1.56563954        3.12674887       -1.99173203
 C           -1.11078115        2.73816872       -3.31552369
 C           -3.49208326        0.07096839       -1.38249875
 C           -3.17269916        1.37572037       -1.92613539
 C           -2.79944844       -2.12067455       -2.21429544
 C           -1.57291886       -2.47379407       -2.92370571
 C           -3.41313817       -0.89989036       -2.46426294
 C            0.27770412       -1.03865592       -3.62675146
 C            0.25267207        0.35531631       -4.02299299
 C           -1.04398265       -1.59982080       -3.86472601
 C           -1.81944690        1.76296341       -3.99665854
 C           -3.01443415        1.22723567       -3.36683223
 C           -3.09338101       -0.18694631       -3.68659411
 C           -1.07486171        0.64362249       -4.55018842
 C           -1.88774248       -0.55073174       -4.40682694
