   70
C70 / DATE: 7/ 1/2024 / Origin: Program Fullerene / C70 from database
 C            1.45395080        0.04833389        4.82221133
 C            0.66291037       -1.16332559        4.71831714
 C            1.25468981       -2.00038389        3.68944435
 C            2.57014392       -0.07889652        3.90385583
 C            2.54279997       -1.41792879        3.34749372
 C            2.52588792        1.04372288        2.98436384
 C            0.62485192        1.14798550        4.36002887
 C            1.27939921        1.75091401        3.22264899
 C           -0.71870895       -0.76538242        4.55529717
 C           -0.71934550        0.64655828        4.18248565
 C           -1.55259181       -1.62116052        3.85493049
 C            0.42791659       -2.50743665        2.68213673
 C           -0.94665543       -2.55349690        2.90751208
 C            0.92276179       -2.64586796        1.37914754
 C            3.02483233       -1.58840917        2.06238630
 C            2.27449469       -2.42323456        1.14461905
 C            2.92384509        0.83702830        1.66473434
 C            3.42772687       -0.41065596        1.30764940
 C            2.36729979        1.63368437        0.66425080
 C            0.52135769        2.11453759        2.12027592
 C            1.19288412        2.34451366        0.93147592
 C           -1.45563158        1.05176826        3.06713102
 C           -0.84522053        1.82042575        2.06205933
 C           -2.70537171       -1.03951840        3.20102865
 C           -2.61379692        0.34239033        2.76873633
 C           -1.84843282       -2.68976183        1.78071913
 C           -2.99722179       -1.84448981        2.03212714
 C            0.04649457       -2.72889613        0.28791320
 C           -1.33651207       -2.71036780        0.49187808
 C            0.54510944       -2.68481631       -1.02480408
 C            2.71113225       -2.06422866       -0.18860370
 C            3.42020560       -0.79474726       -0.09117048
 C            1.85678146       -2.26014527       -1.26459476
 C            2.76070421        1.43950567       -0.66210343
 C            3.18431694        0.16876226       -1.06634983
 C            2.33605052        2.36484712       -1.61358759
 C            0.50397626        2.94098807       -0.11380735
 C            1.22245336        3.22821038       -1.27065263
 C           -1.52607379        2.07396026        0.86217071
 C           -0.89215672        2.82012221       -0.14141561
 C           -3.17265140        0.41245741        1.43467065
 C           -3.41549652       -0.94356504        0.97626539
 C           -2.65095695        1.31409310        0.52066072
 C           -2.16611148       -2.30282272       -0.54925909
 C           -3.05767925       -1.24625010       -0.33133854
 C           -0.34905502       -2.78276446       -2.09426552
 C           -1.76662060       -2.59009939       -1.84524341
 C           -0.03184569       -2.14658217       -3.36439725
 C            2.15229961       -1.56916729       -2.43750412
 C            2.84316977       -0.29492813       -2.33379352
 C            1.16273596       -1.45944919       -3.49165083
 C            2.15447983        1.95195164       -2.99585114
 C            2.27105265        0.60963782       -3.31306692
 C            1.15929054       -0.07742103       -3.95881934
 C            0.53470756        3.57718879       -2.49456773
 C            1.04097320        2.70507162       -3.54262752
 C           -1.59898069        3.06550251       -1.32039577
 C           -0.90765801        3.50913813       -2.51538535
 C           -2.93303124        1.09932817       -0.82700438
 C           -3.11750078       -0.21580274       -1.26922358
 C           -2.60508558        2.10499188       -1.72728187
 C           -2.31241568       -1.80083023       -2.93394699
 C           -1.24240602       -1.53962619       -3.88044773
 C           -2.94157417       -0.53509284       -2.61134454
 C           -0.04725368        0.59313475       -4.18210016
 C           -0.08903554        1.98425311       -4.10118328
 C           -1.29401221        2.62351323       -3.60186193
 C           -2.38112543        1.78617870       -3.12834405
 C           -1.24761134       -0.11713157       -4.17468532
 C           -2.41785972        0.45998384       -3.52794648
