   70
C70 / DATE: 7/ 1/2024 / Origin: Program Fullerene / C70 from database
 C            1.71460419        0.07633055        4.72605886
 C            0.86530260       -1.10105673        4.66221208
 C            1.38184084       -1.96242977        3.61570504
 C            2.63953443        0.01678188        3.60750169
 C            2.52623403       -1.29244029        3.01090816
 C            2.40481946        1.16276554        2.75763953
 C            0.86921051        1.23803349        4.53417932
 C            1.33711720        1.94565373        3.35395158
 C           -0.51236300       -0.65919400        4.58187516
 C           -0.51319417        0.79812824        4.57201809
 C           -1.38543123       -1.35579947        3.75501411
 C            0.49664375       -2.65026237        2.78326668
 C           -0.87663409       -2.41146346        2.88500362
 C            1.00179246       -3.16196794        1.59124054
 C            2.69803240       -1.41918110        1.63948517
 C            2.23438004       -2.59439347        1.07522938
 C            2.39753619        0.97736343        1.37875935
 C            2.74647883       -0.26730840        0.83774441
 C            1.71055670        1.89477888        0.58488872
 C            0.39908244        2.52689476        2.50976966
 C            0.72473692        2.70224235        1.16535568
 C           -1.43156495        1.47930513        3.78427928
 C           -0.94755527        2.51111127        2.88128618
 C           -2.42173689       -0.64019751        3.02811415
 C           -2.46706779        0.74446979        3.07311098
 C           -1.70777939       -2.43666174        1.68683164
 C           -2.62448031       -1.31503249        1.75928254
 C            0.11537849       -3.36019431        0.45425394
 C           -1.13867209       -2.76889834        0.45872819
 C            2.21126890       -2.71696820       -0.35968226
 C            0.93060059       -3.28643734       -0.74186045
 C            2.78312870       -0.40225067       -0.55648235
 C            2.71124015       -1.68166574       -1.12995675
 C            1.82651909        1.80515522       -0.80453830
 C            2.53230351        0.72528984       -1.34920827
 C            1.05979786        2.64374627       -1.62735665
 C           -0.18633930        3.36118248        0.35186285
 C           -0.03457325        3.29542939       -1.08452029
 C           -1.96998819        2.69258000        1.86522615
 C           -2.77800120        1.48573280        1.86016567
 C           -1.60224313        3.24181245        0.64868789
 C           -2.85725743       -0.58188882        0.60508970
 C           -2.97373990        0.81253964        0.65461806
 C           -1.61551485       -2.16566131       -0.71200530
 C           -2.62571723       -1.19839439       -0.61696770
 C            0.36516500       -2.85814423       -1.93680169
 C           -0.94921793       -2.38055926       -1.93098981
 C            2.49450266       -1.79663797       -2.49613769
 C            1.24765695       -2.41278247       -2.92310178
 C            2.73948165        0.65113242       -2.72416987
 C            2.74321794       -0.65432332       -3.34393254
 C            1.01845275        2.41374058       -2.99514797
 C            1.99204823        1.53202090       -3.59453335
 C           -0.27501715        2.15129660       -3.60900643
 C           -1.34528839        3.04310493       -1.66313845
 C           -2.24756950        2.75880755       -0.56046278
 C           -2.92925284        1.54505317       -0.53751406
 C           -1.42677928        2.28205366       -2.82709007
 C           -3.09525185       -0.56214953       -1.75374032
 C           -3.14484385        0.88608145       -1.74439011
 C           -2.45912856        1.34973016       -2.94319287
 C           -1.48964939       -1.88085466       -3.11489239
 C           -2.62752360       -0.98964370       -3.05268817
 C           -2.30769927        0.20258119       -3.82249420
 C            0.75266520       -1.67277071       -4.07052819
 C            1.73935206       -0.65527479       -4.39625721
 C            1.30532321        0.71433788       -4.58362287
 C           -0.11273959        1.01839033       -4.50922576
 C           -0.60122073       -1.37296900       -4.14628416
 C           -1.03497031       -0.01980045       -4.47742298
