   70
C70 / DATE: 7/ 1/2024 / Origin: Program Fullerene / C70 from database
 C            1.37632928       -0.03690665        5.53378612
 C            0.47272042       -1.16066165        5.69885177
 C            1.09286512       -2.31896123        5.07994483
 C            2.48058133       -0.46986536        4.69212985
 C            2.30384189       -1.87456588        4.40932740
 C            2.55909129        0.44391254        3.56923639
 C            0.66297115        1.00119203        4.80984492
 C            1.51304880        1.43778245        3.72387236
 C           -0.74216815       -0.86155403        4.95874652
 C           -0.65105934        0.50182801        4.46275721
 C            0.18846154       -2.80928841        4.05490816
 C           -0.95539273       -1.92369963        3.99186364
 C            2.21139890       -2.28213447        3.02014539
 C            0.95611842       -2.98809311        2.83881852
 C            2.78797904       -0.04595688        2.28352965
 C            2.60516061       -1.40840496        2.00782366
 C            2.60129470        0.84879108        1.23050234
 C            0.90878969        1.89062614        2.55895768
 C            1.68140218        1.88974633        1.40628432
 C           -1.12045768        0.76242778        3.17834776
 C           -0.46937634        1.72421276        2.40331765
 C           -1.41646671       -1.56955531        2.73067064
 C           -1.80327518       -0.24848697        2.50991493
 C            0.30665686       -2.81300685        1.62142991
 C           -0.99525017       -2.31525878        1.62630711
 C            2.24896543       -1.75496189        0.70597286
 C            1.09108334       -2.51976145        0.51548443
 C            2.87453992        0.41166449       -0.06388946
 C            2.69233153       -0.94537146       -0.33625870
 C            2.78621104        1.34910042       -1.08902037
 C            1.16096971        2.52291387        0.28449052
 C            1.91398149        2.48731657       -0.88336702
 C           -1.02348832        2.03867073        1.16027380
 C           -0.22466746        2.68311402        0.21492575
 C           -2.35737639        0.04718317        1.27278929
 C           -2.12976392        1.30708689        0.71833068
 C           -1.59559379       -2.02093524        0.40159027
 C           -2.55507539       -1.01599229        0.40519111
 C            0.47549984       -2.50779243       -0.73212856
 C           -0.90092717       -2.27080669       -0.79121528
 C            2.42039065       -1.36799233       -1.63316733
 C            1.26664298       -2.22289124       -1.83276344
 C            2.64011788        0.91955526       -2.46785159
 C            2.47586196       -0.42921557       -2.73829561
 C            1.30537040        2.83003392       -2.15499559
 C            1.81283342        1.90154122       -3.15446079
 C           -0.81731716        3.11904641       -0.96468458
 C           -0.02624062        3.21775833       -2.18120578
 C           -2.68772511        1.58748472       -0.53464237
 C           -2.12408821        2.59476476       -1.32024121
 C           -3.25875403       -0.77561699       -0.75739671
 C           -3.48056247        0.60724978       -1.13243571
 C           -1.51366896       -1.92845879       -2.00840950
 C           -2.82725646       -1.45700863       -1.95711568
 C            0.64666015       -1.85545009       -3.08627228
 C            1.49048755       -0.85192464       -3.71944160
 C           -0.73615525       -1.73314595       -3.16321208
 C            0.99475180        1.50299568       -4.20668682
 C            0.90163858        0.09117422       -4.55157709
 C           -0.86935152        2.83409157       -3.30205259
 C           -2.19439591        2.53031449       -2.77554175
 C           -0.33295186        2.08148673       -4.34375751
 C           -3.70792219        0.61951127       -2.56782164
 C           -3.39179302       -0.71315608       -3.06495443
 C           -2.99672524        1.57591019       -3.39077592
 C           -1.27118439       -1.11015343       -4.29453420
 C           -0.44939346       -0.15795904       -5.02166173
 C           -1.16124043        1.11025998       -5.03425293
 C           -2.61172549       -0.56434003       -4.26809249
 C           -2.50825839        0.85858661       -4.55618713
