   70
C70 / DATE: 7/ 1/2024 / Origin: Program Fullerene / C70 from database
 C            1.13301352        0.01750294        4.60286848
 C            2.39704909       -0.36845876        4.03184843
 C            2.25134773       -1.73151629        3.53060756
 C            0.29839124       -1.17068210        4.59507478
 C            0.84196648       -2.04189580        3.57381745
 C           -1.05916336       -0.71427241        4.44408490
 C            0.37182584        1.05341351        3.93555258
 C           -1.00934424        0.72292863        4.19487617
 C            0.74531826        1.45541364        2.64992012
 C            2.91323517        0.40700557        2.92664300
 C            2.07113461        1.28308981        2.23035283
 C            2.93135674       -1.77586116        2.25447760
 C            3.68738677       -0.54291470        2.16260594
 C            2.24412101       -2.20161892        1.12151774
 C            0.14643131       -2.20242513        2.37338584
 C            0.85097196       -2.39066029        1.17637989
 C           -1.85601498       -1.27561783        3.37564196
 C           -1.23731607       -1.98030337        2.33723573
 C           -1.98835904        0.99644250        3.16786171
 C           -2.77111859       -0.21589269        3.02540677
 C           -0.23658399        1.82342173        1.71882956
 C           -1.60038853        1.65937210        2.00727030
 C            0.14267679        2.23657919        0.43998115
 C            2.44465502        1.64952743        0.93335072
 C            1.48962627        2.17414136        0.04827742
 C            4.10897566       -0.14769515        0.91269623
 C            3.64865588        1.14023184        0.43444786
 C            2.86033746       -1.98796854       -0.11385539
 C            3.90036847       -1.06102076       -0.19519860
 C            2.21865331       -2.40092896       -1.27539637
 C            0.14358600       -2.65645490        0.00186295
 C            0.84317261       -2.84613097       -1.18853947
 C           -1.92498942       -2.09349274        1.12450679
 C           -1.24185838       -2.48047583       -0.03161512
 C           -3.49929314       -0.36531375        1.86556442
 C           -3.18547843       -1.49696231        1.01373404
 C           -2.51956444        1.68707860        0.95931917
 C           -3.57339223        0.76895324        0.97065133
 C           -0.83925131        2.64336819       -0.46863631
 C           -2.17815153        2.30557875       -0.24012305
 C           -0.44691479        3.17260857       -1.69259295
 C            1.84808029        2.43673408       -1.28593554
 C            0.87644194        2.86552331       -2.17893550
 C            3.88876449        1.13233325       -0.99048031
 C            4.04779242       -0.25858188       -1.39466791
 C            2.89954439        1.72583738       -1.84890824
 C            2.35392598       -1.62309396       -2.50349184
 C            3.16275833       -0.50143995       -2.51797121
 C            2.58807955        0.77435273       -2.90143138
 C            0.21004826       -2.53036695       -2.45699587
 C            1.04611529       -1.55016157       -3.12520096
 C           -1.91179959       -2.49724835       -1.25770513
 C           -1.16016139       -2.36871564       -2.49307739
 C           -3.72786524       -1.17728844       -0.29801123
 C           -4.06715941        0.24100882       -0.28611478
 C           -3.13659159       -1.73429750       -1.42011496
 C           -3.07373285        2.20165144       -1.30824375
 C           -3.88081313        1.00378224       -1.42584481
 C           -1.32912357        3.07597229       -2.84103650
 C           -2.65919459        2.55096501       -2.64866758
 C            0.70465749        2.08768255       -3.39744858
 C            1.31392434        0.83952046       -3.45840240
 C            0.50579303       -0.31149813       -3.48080829
 C           -0.66678662        2.22825180       -3.81962605
 C           -1.71561633       -1.24401466       -3.22562348
 C           -3.01447051       -0.94730898       -2.63941502
 C           -3.49387827        0.35678673       -2.66906808
 C           -2.78300689        1.34732678       -3.46012251
 C           -0.88470037       -0.20020497       -3.63920208
 C           -1.45810022        1.02839791       -3.96214282
