   70
C70 / DATE: 7/ 1/2024 / Origin: Program Fullerene / C70 from database
 C            1.58802298       -0.03723888        4.54574226
 C            0.77308712       -1.22008731        4.33599491
 C            1.37137737       -1.99681729        3.26481000
 C            2.64923567       -0.05046750        3.55458448
 C            2.54990250       -1.28021513        2.80880773
 C            2.58608783        1.18711082        2.81583254
 C            0.75417062        1.12276553        4.28273652
 C            1.40186542        1.90984114        3.26088316
 C           -0.60022132       -0.78826514        4.18692248
 C           -0.58995242        0.65936530        4.02908162
 C           -1.42995158       -1.53299862        3.36314988
 C            0.54437900       -2.59052413        2.30781351
 C           -0.84234633       -2.52311447        2.46748495
 C            1.07008800       -2.85526935        1.03799806
 C            2.79515885       -1.25925525        1.44655679
 C            2.32784166       -2.33612173        0.71506033
 C            2.87236560        1.17878080        1.45259027
 C            3.01129891       -0.04459931        0.77555434
 C            2.48043703        2.30059014        0.73577149
 C            0.62593672        2.54237526        2.29646340
 C            1.30492535        3.02609450        1.18896522
 C           -1.31394911        1.22197880        2.98132262
 C           -0.73077279        2.20792938        2.16187773
 C           -2.47132448       -0.84585491        2.62165196
 C           -2.44924390        0.54360195        2.53843565
 C           -1.70233849       -2.62115235        1.29756066
 C           -2.73725144       -1.60978146        1.41424591
 C            0.20712304       -3.25097052        0.01164472
 C           -1.12904306       -2.85764735        0.05979993
 C            0.74207050       -3.67831425       -1.19800917
 C            2.82912926       -2.49629243       -0.56362665
 C            2.12609830       -3.36293074       -1.48546768
 C            3.09719073       -0.06303894       -0.62805234
 C            3.22874063       -1.29694831       -1.27524113
 C            2.44890911        2.25689990       -0.70995154
 C            2.74135515        1.07223667       -1.36806199
 C            0.56367174        3.45214966        0.02394348
 C            1.31995365        3.06084021       -1.15704593
 C           -1.47317857        2.73260248        1.09327965
 C           -0.81765577        3.33815645        0.00742571
 C           -3.25846533        1.14383307        1.58684693
 C           -2.82280083        2.39298989        1.00155826
 C           -3.16269636       -0.92047426        0.28322271
 C           -3.75340034        0.32140910        0.49468976
 C           -1.73664890       -2.32414606       -1.07821141
 C           -2.56848060       -1.20686492       -0.95475056
 C           -0.01996615       -3.45318402       -2.41113201
 C           -1.22012269       -2.64054354       -2.33097006
 C            2.18802917       -2.75519409       -2.80230472
 C            2.80599269       -1.44739274       -2.65861823
 C            0.86708333       -2.85035716       -3.39373281
 C            2.32377095        0.94822772       -2.68979823
 C            2.26077671       -0.35721998       -3.31881189
 C            0.63807438        2.70606790       -2.32151393
 C            1.17807206        1.71929543       -3.14732373
 C           -1.44057830        3.44201025       -1.23390630
 C           -0.72616952        2.98897604       -2.41673509
 C           -3.53067398        2.52315144       -0.25772419
 C           -4.00150432        1.19608505       -0.62809010
 C           -2.82933909        3.06962395       -1.39395793
 C           -2.62597262       -0.28221131       -2.00872444
 C           -1.59655919        2.05001873       -3.11053659
 C           -3.40921281        0.86079070       -1.90250869
 C           -2.89565007        2.08973961       -2.46666949
 C           -1.11018711       -1.58617904       -3.32227936
 C            0.22901993       -1.64297298       -3.88377728
 C            0.96532168       -0.47021573       -3.98118931
 C            0.27975532        0.79879712       -3.82491461
 C           -1.68190898       -0.35187163       -3.03482803
 C           -1.06875248        0.82239782       -3.49184418
