   70
C70 / DATE: 7/ 1/2024 / Origin: Program Fullerene / C70 from database
 C            1.43040584        0.05167918        4.77475319
 C            0.67106868       -1.18067760        4.68122510
 C            1.52056777       -2.17664655        4.07047343
 C            2.63655172       -0.11765794        3.98142200
 C            2.72891761       -1.50839194        3.60453678
 C            2.60926694        0.87526825        2.93042435
 C            0.63979820        1.10653677        4.15930350
 C            1.44444178        1.71599746        3.13136055
 C           -0.58975200       -0.87165605        4.04082344
 C           -0.63382608        0.55250331        3.76358803
 C           -1.10522404       -1.72310476        3.07474031
 C            0.99554240       -2.93963295        2.95397559
 C           -0.32259082       -2.75841795        2.53390481
 C            2.89115854       -1.83923463        2.19919983
 C            2.03934849       -2.98540817        1.94932814
 C            2.92518876        0.52229068        1.62010728
 C            2.95849567       -0.82726479        1.23666459
 C            2.64764170        1.46702176        0.64158776
 C            0.81736329        2.19197458        1.98995728
 C            1.62198005        2.38518163        0.88040192
 C           -1.19788657        0.96350950        2.55460233
 C           -0.53606030        1.91286829        1.76362449
 C           -2.15304461       -1.23222916        2.31251169
 C           -2.13051191        0.12296972        1.95028901
 C           -2.81866337       -2.14374257        1.51571328
 C           -0.69936162       -3.31572477        1.30490185
 C           -2.01528348       -3.16314323        0.87463807
 C            1.67736135       -3.26330580        0.64271673
 C            0.28459734       -3.56389710        0.34590775
 C            2.73680392       -1.16325298       -0.10821063
 C            2.16435854       -2.39878605       -0.41897991
 C            2.95390727        1.15585267       -0.67298525
 C            2.73268134       -0.15902842       -1.08453591
 C            2.85908799        2.18459050       -1.60088691
 C            1.08818654        3.07149078       -0.19732669
 C            1.92330278        3.24946351       -1.29681741
 C           -1.07226102        2.25395163        0.51349299
 C           -0.30147767        3.02766958       -0.36466033
 C           -2.77769947        0.55114328        0.78980231
 C           -2.23037760        1.60828412        0.04392509
 C           -3.78475233       -1.66201854        0.55597315
 C           -3.78099534       -0.25026353        0.24370842
 C           -2.27861294       -3.05538422       -0.55040426
 C           -3.55247883       -2.38062472       -0.68697097
 C            0.04226982       -3.18610683       -1.04019040
 C            1.21236090       -2.47467014       -1.51268841
 C           -1.22224404       -2.74468726       -1.40610218
 C            2.05394508       -0.39849288       -2.28898865
 C            1.05350460       -1.35914760       -2.31386028
 C            2.67217632        1.83977823       -2.99149839
 C            2.04609256        0.57007393       -3.28047740
 C            1.38684952        3.74879552       -2.54353633
 C            1.88148096        2.88972531       -3.60782112
 C           -0.88269546        3.47851495       -1.54371977
 C           -0.04798349        3.84147163       -2.67950932
 C           -2.70653265        1.86747621       -1.25581549
 C           -2.00610189        2.74368607       -2.07643456
 C           -4.06918154       -0.15692017       -1.16698663
 C           -3.72131266       -1.43747870       -1.76562810
 C           -3.39041379        0.86031593       -1.92646321
 C           -1.34723643       -1.70641673       -2.34355433
 C           -0.21517960       -1.00828408       -2.78312844
 C           -2.60288247       -1.19332934       -2.65485855
 C           -2.70287581        0.20050495       -3.02435515
 C            0.79021942        0.83579370       -3.96487884
 C            0.73118962        2.26479799       -4.23318617
 C           -0.43765276        2.99437885       -3.79787368
 C           -1.58267086        2.22821924       -3.36705685
 C           -0.36299209        0.16416756       -3.54282809
 C           -1.58929777        0.84708091       -3.53636647
