   70
C70 / DATE: 7/ 1/2024 / Origin: Program Fullerene / C70 from database
 C            1.49314907        0.10072867        4.79859526
 C            0.72131245       -1.11420046        4.62780082
 C            1.59728771       -2.08970371        4.02190351
 C            2.68790810       -0.02004575        3.97493608
 C            2.77733908       -1.38853894        3.53141798
 C            2.63576189        1.02485194        2.97444769
 C            0.70573357        1.19746243        4.26761434
 C            1.53453505        1.90169448        3.32173109
 C           -0.51109741       -0.77249736        3.93577243
 C           -0.55045173        0.67297804        3.77932723
 C           -0.94912526       -1.56747125        2.87770624
 C            1.08008300       -2.86603456        2.91833903
 C           -0.25795586       -2.74493007        2.55360450
 C            2.87821673       -1.65352273        2.10705199
 C            2.07217891       -2.82994433        1.85949130
 C            2.83010594        0.72923360        1.61909647
 C            2.82377738       -0.60689633        1.18505387
 C            2.50438919        1.73607785        0.70420449
 C            0.91864242        2.54262002        2.26636280
 C            1.71802368        2.79601088        1.17141328
 C           -1.05963665        1.20119274        2.59557056
 C           -0.43957850        2.31205824        2.01495990
 C           -1.80873730       -0.99794714        1.93586006
 C           -1.85560880        0.39564592        1.79399541
 C           -2.41202368       -1.81689431        0.98137278
 C           -0.63110411       -3.43883252        1.40911723
 C           -1.81183423       -3.02971863        0.67381559
 C            1.63061523       -3.07269916        0.56759351
 C            0.40658402       -3.72227013        0.43207354
 C            2.44748838       -0.90713483       -0.12882761
 C            2.03882356       -2.21044331       -0.45078732
 C            2.51363898        1.44332105       -0.66294592
 C            2.33384792        0.12077830       -1.06999732
 C            2.27512396        2.47382266       -1.57412196
 C            1.23360533        3.72759613        0.27835035
 C            1.76808714        3.72894988       -1.06094752
 C           -0.97808854        2.85806136        0.83845023
 C           -0.21103275        3.82501688        0.17956331
 C           -2.47882951        0.95974142        0.68756851
 C           -1.95850193        2.13821078        0.12557370
 C           -3.27497004       -1.25472177        0.04817704
 C           -3.40387314        0.18852543       -0.00328709
 C           -3.23857466       -1.74029280       -1.32421509
 C           -1.60578037       -3.38186802       -0.72376316
 C           -0.21690519       -3.79905638       -0.87472913
 C           -2.21976643       -2.60921608       -1.70884539
 C            1.66069739       -2.51091206       -1.75676640
 C            0.50604157       -3.37095809       -1.97569728
 C            1.79729903       -0.14204396       -2.33294841
 C            1.61582091       -1.45225855       -2.74426153
 C            1.55033771        2.18058364       -2.80043894
 C            1.15053976        0.87480473       -3.02897011
 C            0.71597504        4.19834908       -1.94081662
 C           -0.52536656        4.18727497       -1.18205270
 C            0.58227012        3.23412541       -3.01486536
 C           -2.29834050        2.50548914       -1.19488166
 C           -1.46934940        3.36993236       -1.89919019
 C           -0.81169542        2.85747275       -3.09344195
 C           -3.75731507        0.54725441       -1.35521939
 C           -3.60557589       -0.63509939       -2.18943640
 C           -3.03649226        1.62769984       -1.97930329
 C           -0.09663217        0.62477144       -3.61902476
 C           -1.12884352        1.56420166       -3.49528138
 C           -2.73895215       -0.29487816       -3.30216932
 C           -2.41147497        1.11597471       -3.18798397
 C           -1.59586691       -2.43929036       -2.94844335
 C           -0.21864958       -2.86598040       -3.12293634
 C            0.52912316       -1.74265702       -3.66103730
 C           -1.74938391       -1.18950091       -3.68033061
 C           -0.41694900       -0.68405339       -3.96994733
