   70
C70 / DATE: 7/ 1/2024 / Origin: Program Fullerene / C70 from database
 C            0.89148467       -0.20827207        5.13827035
 C            2.15968777       -0.49209828        4.49139825
 C            2.07632033       -1.81914239        3.90146802
 C            0.05501166       -1.39101075        5.01606393
 C            0.74614556       -2.33856617        4.15618517
 C           -1.28268023       -0.95431524        4.65817608
 C            0.11109602        0.93650889        4.69747168
 C           -1.25235912        0.48872082        4.48242562
 C            0.66365139        1.84282685        3.80093792
 C            2.64828929        0.41494056        3.46892433
 C            1.99964236        1.62206661        3.25684112
 C            2.55027135       -1.73025467        2.52823408
 C            3.03959069       -0.38026711        2.31867448
 C            1.83218884       -2.34889342        1.50382786
 C            0.06024553       -2.95026755        3.11444121
 C            0.71859211       -3.11898102        1.82616252
 C           -1.92085449       -1.52700921        3.48744228
 C           -1.33384566       -2.61017533        2.85031113
 C           -1.90966643        0.80110570        3.22190644
 C           -2.43888557       -0.43514387        2.67907244
 C           -0.15971866        2.37393776        2.72507212
 C           -1.32898799        1.71622375        2.34776820
 C            2.02819284        2.20497245        1.92725835
 C            0.74721086        2.83988768        1.69595233
 C            2.93726498        0.15658680        1.04182564
 C            2.60750309        1.50682295        0.86922641
 C            1.97841951       -1.87499767        0.19446025
 C            2.73960075       -0.72369950       -0.01703064
 C            1.12894391       -2.34428357       -0.81992712
 C           -0.32867279       -3.28410070        0.84286244
 C           -1.55603033       -2.78208775        1.42776374
 C           -0.08379301       -2.94705473       -0.47583583
 C           -2.50064540       -0.57343884        1.29596517
 C           -2.26704569       -1.82107463        0.71263280
 C           -1.66864996        1.66642771        0.99290039
 C           -2.38279441        0.57091267        0.50482274
 C            0.30360867        2.90117817        0.38797244
 C           -0.99743977        2.49272493        0.09155856
 C            2.35144352        1.96773346       -0.42711467
 C            1.26066923        2.82516199       -0.61656042
 C            2.90713169       -0.23827723       -1.30164025
 C            2.80286368        1.19351896       -1.49397419
 C            1.30046765       -1.89325622       -2.13886338
 C            2.22372391       -0.88673346       -2.40298796
 C            0.30429103       -2.14991152       -3.08543358
 C           -1.19204389       -2.65761772       -1.25400895
 C           -2.20647367       -1.88740313       -0.67733473
 C           -0.99838185       -2.59314162       -2.62215930
 C           -2.60281908        0.45946503       -0.86655058
 C           -2.72597119       -0.82213916       -1.40584832
 C           -1.40792977        2.52542718       -1.24192973
 C           -2.28950578        1.53797747       -1.69944559
 C            0.85204819        3.16370365       -1.89897148
 C           -0.57503270        3.18609818       -2.14727246
 C            2.28782463        1.42735591       -2.83040353
 C            1.91314992        0.13612190       -3.39274017
 C            1.47250512        2.52477298       -3.04585072
 C            0.08173105       -1.20253312       -4.17077945
 C            0.75726853        0.01772700       -4.16261748
 C           -2.00978916       -1.94340987       -3.43253254
 C           -2.87597144       -0.98512151       -2.77784021
 C           -1.33097553       -1.25684454       -4.51381205
 C           -2.64226017        1.47801037       -3.04865787
 C           -2.95207915        0.18630730       -3.62764542
 C           -2.04855010       -0.02257181       -4.75266439
 C           -0.76063400        3.01931072       -3.57263982
 C            0.47606460        2.45938435       -4.09971666
 C            0.14946505        1.16818128       -4.67630488
 C           -1.85024003        2.18957975       -4.03340456
 C           -1.28288296        1.19241362       -4.92577757
