   70
C70 / DATE: 7/ 1/2024 / Origin: Program Fullerene / C70 from database
 C            1.40921910        0.07823108        5.16398973
 C            0.59910158       -1.11875206        5.04695182
 C            1.40383929       -2.13132655        4.39030430
 C            2.61434982       -0.12566893        4.37480902
 C            2.62110388       -1.49222242        3.91122641
 C            2.67037991        0.92735933        3.38574267
 C            0.66777351        1.17456070        4.56231170
 C            1.53678815        1.81259635        3.60454252
 C           -0.66919542       -0.74169543        4.44731953
 C           -0.59382603        0.66424452        4.07737732
 C           -1.28597113       -1.62301558        3.57174739
 C            0.82456839       -2.86366676        3.27829061
 C           -0.53491538       -2.75047631        3.02493550
 C            2.71600705       -1.73837115        2.48319211
 C            1.74730573       -2.77058370        2.16125433
 C            3.02163119        0.63700068        2.06605589
 C            2.88687813       -0.67727082        1.58555470
 C            2.89098100        1.69104035        1.17075191
 C            0.97591440        2.40065575        2.47940650
 C            1.86459915        2.67861048        1.45525701
 C           -1.02515603        1.06121603        2.81072426
 C           -0.35015636        2.09086837        2.13296257
 C           -2.08446443       -1.07948379        2.49019413
 C           -1.92053210        0.24878301        2.11079687
 C           -1.00707727       -2.96709274        1.66861388
 C           -2.13867479       -2.08966740        1.45610984
 C            1.25676430       -2.81208925        0.86301364
 C           -0.09141043       -3.11111196        0.62899851
 C            2.56870478       -0.90552838        0.23658974
 C            1.96245280       -2.11683301       -0.11130593
 C            2.84799348        1.42942310       -0.25252259
 C            2.61382325        0.14118103       -0.69379586
 C            1.34906633        3.15495113        0.19902565
 C            2.10730882        2.51565756       -0.86188838
 C           -0.85287345        2.52826174        0.89694944
 C           -0.02147501        3.26901786        0.04085858
 C           -2.31983650        0.62638634        0.83310972
 C           -1.99081356        1.89650647        0.37973696
 C           -2.39426995       -1.68651978        0.15782020
 C           -2.72124277       -0.35297841       -0.08366393
 C           -0.57426383       -3.00609680       -0.67997529
 C           -1.83402292       -2.42575744       -0.87668903
 C            1.65346414       -2.37602010       -1.43624521
 C            0.36010043       -2.96716606       -1.71282867
 C            2.09488080       -0.04160039       -1.97708267
 C            1.86955420       -1.33841025       -2.42070856
 C            1.46279235        2.30215828       -2.07431772
 C            1.55748057        1.04679316       -2.68380698
 C           -0.45871339        3.56944926       -1.24240676
 C            0.36052160        3.10992422       -2.35427372
 C           -2.56022376        2.34547162       -0.80481084
 C           -1.83980658        3.32469109       -1.58498059
 C           -3.08549392        0.01632609       -1.38113691
 C           -3.12037049        1.36801358       -1.72475746
 C           -2.29102152       -2.16904411       -2.16371970
 C           -3.05587635       -0.95284731       -2.38511891
 C           -0.04356689       -2.54407205       -3.04194939
 C            0.94800942       -1.58261011       -3.51403550
 C           -1.39142621       -2.33088124       -3.29152810
 C            0.89765660        0.83375951       -3.89658325
 C            0.56002832       -0.51746638       -4.31338776
 C           -0.52278486        2.77962574       -3.45757070
 C           -1.88938320        2.92179608       -2.97984970
 C           -2.79225128        1.78986736       -3.08295808
 C           -0.20588791        1.70418994       -4.27497737
 C           -2.85379040       -0.55504736       -3.76641601
 C           -1.78689918       -1.37880335       -4.31449484
 C           -0.78141753       -0.49489940       -4.87152439
 C           -2.54921086        0.83157925       -4.05874851
 C           -1.28274075        0.86487972       -4.77646563
