   70
C70 / DATE: 7/ 1/2024 / Origin: Program Fullerene / C70 from database
 C            1.27449315       -0.03094332        4.10407591
 C            2.44501720       -0.23183217        3.26932377
 C            2.37580809       -1.58355106        2.73524884
 C            0.42388694       -1.20284797        3.96788448
 C            1.04858752       -2.10236530        3.02928307
 C           -0.91479109       -0.75135888        3.68580187
 C            0.45457676        1.14641342        3.89508830
 C           -0.90895618        0.70225375        3.65653157
 C            0.96389667        2.19123060        3.14432971
 C            2.89685483        0.79998100        2.44995441
 C            2.24424111        2.03561679        2.46289970
 C            3.71554190        0.47880399        1.36967400
 C            2.95029232       -1.85355602        1.49660651
 C            3.81363501       -0.90900127        0.94358176
 C            2.35876870       -2.82064841        0.68095912
 C            0.29595870       -2.65033421        1.99575654
 C            0.99562487       -3.25357561        0.96095708
 C           -1.67548505       -1.41369185        2.73323073
 C           -1.03731826       -2.24957166        1.79385934
 C           -2.85887629       -0.78079828        2.38440582
 C           -1.70992484        1.34721248        2.71092112
 C           -2.84657070        0.66955724        2.27516154
 C            0.07555612        2.90639843        2.24811097
 C           -1.15038745        2.34005931        1.89686631
 C            2.18361256        2.82298710        1.24052764
 C            0.90588206        3.51677568        1.22462328
 C            3.67613414        1.30489130        0.17213323
 C            2.69773030        2.28441497        0.06464444
 C            4.07271459       -0.91241185       -0.48539330
 C            3.95064292        0.45384177       -0.96571768
 C            2.52349711       -2.77356299       -0.76649885
 C            3.26989869       -1.75985891       -1.34263653
 C            0.33782514       -3.50899056       -0.30086807
 C            1.25531646       -3.13885357       -1.36611567
 C           -1.71261958       -2.63940341        0.61885810
 C           -1.00762390       -3.20420805       -0.45069987
 C           -3.65265055       -1.30678556        1.30443517
 C           -3.04404189       -2.27345682        0.42091136
 C           -3.43158243        1.00767585        0.99300269
 C           -4.09189384       -0.18086379        0.49359879
 C           -1.69191489        2.60913896        0.63340923
 C           -2.70195350        1.79560452        0.11562849
 C            0.33277320        3.83749539        0.00728733
 C           -1.07498737        3.54814642       -0.18764514
 C            1.98812067        2.43656943       -1.13279669
 C            1.01405396        3.43036999       -1.20775273
 C            3.01439936        0.45876440       -2.06920591
 C            2.65253269       -0.91849094       -2.35609311
 C            2.01877194        1.42654759       -2.10670679
 C            0.75904349       -2.41583474       -2.44550555
 C            1.35476490       -1.19195976       -2.78380705
 C           -1.49121893       -3.06313546       -1.75316761
 C           -0.56506817       -2.65244926       -2.79832088
 C           -3.49676721       -1.94501735       -0.91717231
 C           -3.90116716       -0.54633322       -0.89302266
 C           -2.76621051       -2.40998780       -1.99811528
 C           -2.79630472        1.57342477       -1.26670735
 C           -3.28245616        0.35403959       -1.75613960
 C           -1.29564538        3.48547085       -1.61688421
 C            0.01004346        3.36837193       -2.25319719
 C           -2.13557384        2.42829289       -2.14608746
 C            0.89278067        1.18192944       -2.89310013
 C            0.56551760       -0.13131383       -3.24411894
 C           -0.03128969        2.19969335       -3.10591330
 C           -1.43048700        1.85800073       -3.27894852
 C           -1.24921525       -1.71058393       -3.65771675
 C           -2.60202414       -1.54115760       -3.15104221
 C           -2.83306736       -0.11656604       -2.98891207
 C           -0.67215679       -0.39427361       -3.82426836
 C           -1.74856572        0.56960110       -3.66929444
