   70
C70 / DATE: 7/ 1/2024 / Origin: Program Fullerene / C70 from database
 C            1.28381373       -0.15866367        4.46026218
 C            2.52691605       -0.40033754        3.75276634
 C            2.42262164       -1.69206317        3.09853025
 C            0.41944220       -1.30834819        4.25218588
 C            1.09981085       -2.22868087        3.36524693
 C           -0.88981155       -0.82421011        3.86068125
 C            0.52125424        1.03623376        4.14616153
 C           -0.82452428        0.62791450        3.77693049
 C            1.12717342        2.06228793        3.43841983
 C            2.96695713        0.56549646        2.76219309
 C            2.39209490        1.82616112        2.74440737
 C            2.83116282       -1.53072607        1.71349418
 C            3.15470751       -0.13177066        1.50057166
 C            2.11254071       -2.19853715        0.73194553
 C            0.38854443       -2.76711554        2.30135808
 C            1.07748926       -3.04470731        1.12130973
 C           -1.59798969       -1.51468389        2.88324986
 C           -1.00196344       -2.61483436        2.25699336
 C           -2.62765040       -0.83806769        2.23545467
 C           -1.49791580        1.27762970        2.73879316
 C           -2.54900780        0.60826620        2.11781486
 C            0.30958430        2.87459780        2.56000446
 C           -0.91118573        2.37758996        2.10095242
 C            2.32292878        2.54037959        1.48331766
 C            1.22430097        3.47725965        1.61082194
 C            2.75872567        0.47610342        0.30876380
 C            2.47966431        1.84588966        0.28095698
 C            2.10632006       -1.68578219       -0.56266865
 C            2.36974883       -0.32389174       -0.76457309
 C            1.54044997       -2.45161610       -1.58336196
 C            0.45240862       -3.81596980        0.15352071
 C            0.70925599       -3.52470750       -1.24755262
 C           -1.71135503       -3.29792420        1.27227935
 C           -0.96652562       -4.07798510        0.29966513
 C           -3.17123070       -1.35764415        0.99241372
 C           -2.77561361       -2.60931543        0.55773166
 C           -2.92062330        0.96108132        0.75993358
 C           -3.21746164       -0.26306844        0.03806912
 C           -1.38361813        2.79961487        0.85240769
 C           -2.22086767        1.96151859        0.11098206
 C            0.70080211        4.01247872        0.45283586
 C           -0.71929307        3.84200006        0.20701736
 C            1.99099561        2.42946534       -0.89356821
 C            1.34600338        3.66789261       -0.79538095
 C            2.08952259        0.27261070       -1.99167377
 C            1.84928620        1.64920642       -2.05139242
 C            1.48576380       -1.93678254       -2.87419617
 C            1.79375126       -0.53321283       -3.09082063
 C            0.33868628       -2.26592389       -3.70053415
 C           -0.53679623       -3.72580856       -1.97805053
 C           -1.59031096       -3.88752540       -0.99677810
 C           -2.56690995       -2.82399244       -0.86285309
 C           -0.79196002       -2.91323295       -3.06988363
 C           -2.70387557       -0.43930295       -1.24715398
 C           -2.49041843       -1.73481376       -1.73207246
 C           -1.85011535       -1.91373281       -2.95501272
 C           -2.10568981        1.90733114       -1.27786849
 C           -2.19778093        0.67126152       -1.93853064
 C           -0.91047167        4.03103219       -1.22142880
 C            0.41625525        4.08777426       -1.82116124
 C           -1.66474041        3.03696607       -1.95651719
 C            1.22109018        2.17703984       -3.18267317
 C            0.37046922        3.34092698       -3.05265650
 C           -0.99676985        2.87374881       -3.22635509
 C            0.89494163       -0.03782470       -4.12406836
 C           -0.14206117       -1.03681138       -4.29339068
 C           -1.45221423       -0.75640982       -3.73056004
 C           -1.68383062        0.52151477       -3.23656000
 C            0.49096979        1.28232588       -4.05366761
 C           -0.91587105        1.54442503       -3.78747875
