   70
C70 / DATE: 7/ 1/2024 / Origin: Program Fullerene / C70 from database
 C            1.70694486       -0.09736104        4.53299469
 C            0.86268311       -1.25995876        4.34956942
 C            1.35308465       -1.99568338        3.19666346
 C            2.65808785       -0.06766580        3.43518303
 C            2.41579318       -1.21471578        2.58946500
 C            2.58315982        1.23875363        2.82923063
 C            0.86155846        1.07899948        4.41642815
 C            1.45450575        1.94435644        3.42355091
 C           -0.51634020       -0.81061614        4.34032466
 C           -0.50086562        0.63807761        4.20527040
 C           -1.42254481       -1.53572753        3.58497927
 C            0.42880586       -2.60557427        2.35856088
 C           -0.92167248       -2.58973212        2.71712227
 C            0.76673366       -2.80282135        1.02063821
 C            2.40090901       -1.03833748        1.20874005
 C            1.72584909       -1.97387767        0.42502473
 C            2.76603745        1.35520550        1.45652153
 C            2.74165439        0.20286294        0.65274217
 C            2.38157426        2.56172031        0.89496320
 C            0.62328349        2.66987227        2.57624112
 C            1.22605318        3.23829920        1.45780556
 C           -1.24961090        1.23598608        3.19218189
 C           -0.74663382        2.37214269        2.53360758
 C           -2.44535707       -0.82652021        2.83624459
 C           -2.35918085        0.55216863        2.67781944
 C           -1.93402717       -2.81428237        1.69835111
 C           -2.79719516       -1.64249760        1.68289334
 C           -0.12773454       -3.49858536        0.22042780
 C           -1.54815596       -3.37359429        0.49430248
 C            0.03580813       -3.47554423       -1.21653487
 C            1.83359972       -1.89881922       -0.96658788
 C            1.10963091       -2.79154025       -1.77236040
 C            2.74523013        0.33231231       -0.74302316
 C            2.49631887       -0.80098409       -1.53000181
 C            2.31663390        2.68251461       -0.53935537
 C            2.68909107        1.60825471       -1.32780830
 C            0.41584242        3.73513876        0.35839756
 C            1.08516265        3.37382177       -0.88021268
 C           -1.55649517        3.05546441        1.62751073
 C           -0.96212202        3.63477386        0.43480499
 C           -3.12776068        1.13045523        1.67549673
 C           -2.82188506        2.47343943        1.23455297
 C           -3.10238360       -1.01234910        0.47358975
 C           -3.45932575        0.33561105        0.50120415
 C           -2.15632726       -2.87749695       -0.72204135
 C           -1.28586302       -3.29615951       -1.80120655
 C           -2.68920779       -1.59017919       -0.73480127
 C           -1.37665442       -2.64092561       -3.01633898
 C            1.10648628       -2.63785718       -3.15553130
 C           -0.17802014       -2.57410889       -3.83124405
 C            2.66719272       -0.72021220       -2.90995277
 C            1.96414907       -1.64905060       -3.76766289
 C            2.35590446        1.71567816       -2.67059461
 C            2.55932090        0.57749486       -3.53419162
 C            0.34718755        2.89776158       -1.96240890
 C            1.06120106        2.29851444       -2.99424953
 C           -1.68985096        3.12515803       -0.71577384
 C           -2.89324974        2.49350064       -0.21869997
 C           -3.20367178        1.15429143       -0.66822240
 C           -0.98276479        2.52424038       -1.75601783
 C           -2.49255532       -0.77849389       -1.85940763
 C           -1.99053336       -1.32118715       -3.03801642
 C           -2.47230916        0.60206682       -1.70695453
 C           -1.47679581        1.35053497       -2.34726320
 C           -0.21745448       -1.32575293       -4.56542601
 C            1.14986044       -0.86975261       -4.69427160
 C            1.42865663        0.52611008       -4.44393004
 C            0.38667061        1.36385612       -3.87053740
 C           -1.18948280       -0.47019074       -3.90292269
 C           -0.81663389        0.79871704       -3.44985257
