   70
C70 / DATE: 7/ 1/2024 / Origin: Program Fullerene / C70 from database
 C            1.62684598       -0.03343646        4.53223655
 C            0.80481291       -1.21733646        4.36404084
 C            1.40828453       -2.04415084        3.33228320
 C            2.67445981       -0.07746577        3.52903777
 C            2.59092238       -1.35425785        2.84660510
 C            2.58618602        1.12832451        2.72591676
 C            0.79630758        1.12084320        4.24635846
 C            1.44238268        1.88936004        3.19753894
 C           -0.56950241       -0.78645608        4.18780091
 C           -0.55923853        0.65730300        4.01192506
 C           -1.39087475       -1.55053211        3.37629564
 C            0.57877381       -2.67782778        2.40955117
 C           -0.80406890       -2.63721152        2.60795922
 C            1.08278359       -2.98098242        1.14092659
 C            2.85189135       -1.38463896        1.48490651
 C            2.28922501       -2.40778693        0.72557385
 C            2.79514383        1.01729114        1.35321389
 C            3.23960606       -0.20284369        0.84764421
 C            2.16576258        1.92073317        0.48944182
 C            0.63974388        2.50774830        2.25129375
 C            1.18768626        2.77813275        0.99987016
 C           -1.26704916        1.23037001        2.95805824
 C           -0.74639471        2.37904643        2.36413468
 C           -2.34345146       -0.88359621        2.50635572
 C           -2.21916396        0.47938034        2.25954180
 C           -1.70238342       -2.90229670        1.49781059
 C           -2.61486586       -1.77373798        1.39206195
 C            0.25008071       -3.59728905        0.20781762
 C           -1.18938571       -3.46171773        0.34099503
 C            0.56792834       -3.52884340       -1.20900622
 C            2.72893663       -2.57837953       -0.58396259
 C            1.80090019       -3.04230017       -1.60065552
 C            3.63424565       -0.26017744       -0.48072843
 C            3.54021086       -1.53105160       -1.17595214
 C            2.31888367        1.77100819       -0.89637523
 C            3.17097553        0.77883944       -1.38373433
 C            1.45067549        2.42511960       -1.77757020
 C            0.47832674        3.60309699        0.13899763
 C            0.56672861        3.37888498       -1.29019926
 C           -1.55126457        3.08333205        1.48039925
 C           -0.90776862        3.88882400        0.45922954
 C           -2.78254259        1.00734246        1.09570250
 C           -2.65124859        2.37472120        0.85392260
 C           -2.88319496       -1.22200409        0.14313055
 C           -3.15373870        0.14902398        0.05329647
 C           -1.70933141       -3.02761694       -0.94282733
 C           -0.62505341       -3.08538432       -1.90972031
 C           -2.60520176       -1.96560702       -1.01210342
 C           -0.54327509       -2.09209241       -2.88606629
 C            1.87125326       -2.11974957       -2.71985310
 C            3.03611769       -1.27569810       -2.51327637
 C            2.89357639        0.15945295       -2.67067311
 C            0.70321714       -1.54839284       -3.22411559
 C            1.18955805        1.87255534       -3.02872598
 C            1.83291269        0.63392455       -3.42354226
 C            0.78090778       -0.28955486       -3.82265010
 C           -0.18262327        1.82973470       -3.50985694
 C           -0.42261746        0.49181839       -4.03760445
 C           -0.78074591        3.44082965       -1.84140137
 C           -1.68779251        3.77697058       -0.75969310
 C           -2.81057540        2.89871564       -0.49417219
 C           -1.17229748        2.49642646       -2.78773468
 C           -3.59516100        0.68500757       -1.15268800
 C           -3.23125877        2.04529639       -1.50009395
 C           -2.46932971        1.97941780       -2.74016721
 C           -2.81131324       -1.39478413       -2.26264026
 C           -1.71710164       -1.41516974       -3.22242098
 C           -1.65521629       -0.10818261       -3.85360166
 C           -3.46775015       -0.10879204       -2.35621491
 C           -2.75347230        0.68846955       -3.34184705
