   70
C70 / DATE: 7/ 1/2024 / Origin: Program Fullerene / C70 from database
 C            1.60864207       -0.03550640        4.71737614
 C            0.77875914       -1.20223878        4.49351490
 C            1.37275881       -1.98706147        3.42360411
 C            2.70393359       -0.08709587        3.76746554
 C            2.52894503       -1.26255726        2.92933085
 C            2.77889340        1.20671273        3.12144908
 C            0.80950362        1.13554547        4.39821630
 C            1.53072285        1.90122477        3.40405939
 C           -0.58709837       -0.74535080        4.32699541
 C           -0.53113595        0.68774613        4.08015872
 C           -1.42703916       -1.51609385        3.53906245
 C            0.52752563       -2.59405925        2.50525339
 C           -0.84499697       -2.59627741        2.75934404
 C            0.97095012       -2.77379456        1.19611547
 C            2.71520670       -1.13682305        1.55300531
 C            1.95620573       -1.92473894        0.67910135
 C            3.26758628        1.25001917        1.82498595
 C            3.34628847        0.00804439        1.06845474
 C            2.74600487        2.25896122        0.92005080
 C            0.82942482        2.46059428        2.34094991
 C            1.55971814        2.90947901        1.24237554
 C           -1.16628516        1.20267477        2.95225064
 C           -0.54319202        2.20602047        2.19449170
 C           -2.38518777       -0.85148096        2.67317307
 C           -2.25767170        0.51084926        2.42314912
 C           -1.76952235       -2.88513307        1.67715278
 C           -2.66648961       -1.74547119        1.55891065
 C            0.16381753       -3.49634966        0.32641803
 C           -1.27667812       -3.46540699        0.52380171
 C            0.40488221       -3.43028501       -1.10266935
 C            2.04307828       -1.71126982       -0.70493040
 C            1.38288803       -2.56854480       -1.59343531
 C            3.22577970        0.34933450       -0.33497454
 C            2.92753487        1.76577873       -0.43599887
 C            2.57258257       -0.51393804       -1.18984921
 C            2.05638290        2.21050044       -1.43150598
 C            0.89733943        3.59060076        0.23407758
 C            1.27917177        3.33191741       -1.14515059
 C           -1.23513999        2.79846733        1.13415319
 C           -0.55041165        3.65316410        0.27494522
 C           -2.92975573        1.03548165        1.32854374
 C           -2.46320100        2.27215789        0.73720849
 C           -2.93846746       -1.19508717        0.30467422
 C           -3.31603702        0.14154309        0.24447474
 C           -1.85851574       -3.07857237       -0.74279603
 C           -0.89975310       -3.47493353       -1.75137240
 C           -2.48556072       -1.83838617       -0.85271079
 C           -1.02552680       -2.93996354       -3.01934228
 C            1.36306772       -2.25410567       -2.95502998
 C            0.19432695       -2.62781002       -3.73393727
 C            2.11047783       -0.00856067       -2.39355782
 C            1.66367645        1.32259555       -2.45108755
 C            1.75708431       -0.91922385       -3.37492720
 C            0.64825149        1.69049403       -3.35620624
 C            0.13486603        3.63914844       -1.97043662
 C           -1.01200953        3.81836695       -1.09296577
 C           -0.23557331        2.70040370       -3.00003058
 C           -2.82431193        2.23701965       -0.67328865
 C           -3.18634300        0.86908667       -1.00353042
 C           -2.08724104        2.97521263       -1.58228315
 C           -1.62783865        2.33695442       -2.80289718
 C           -2.41365771       -1.14594659       -2.06898094
 C           -1.92333274       -1.80809419       -3.19576245
 C           -2.60199122        0.24396848       -2.10096959
 C           -1.99955842        1.02705612       -3.09916135
 C           -0.10521296       -1.54815300       -4.65423734
 C            0.86611839       -0.49386967       -4.42730426
 C            0.13908941        0.73634916       -4.23053040
 C           -1.41313625       -1.02325780       -4.29833656
 C           -1.27361200        0.40196806       -4.10809723
