   70
C70 / DATE: 7/ 1/2024 / Origin: Program Fullerene / C70 from database
 C            1.63112769       -0.00467992        4.50051540
 C            0.80587805       -1.19004289        4.37142970
 C            1.36687206       -2.02412003        3.32041895
 C            2.66135257       -0.07470606        3.48280096
 C            2.50708036       -1.32409626        2.75955782
 C            2.61848446        1.15821301        2.71934245
 C            0.79748139        1.14522247        4.19924017
 C            1.43090297        1.89059208        3.12375955
 C           -0.57404730       -0.75996327        4.24342917
 C           -0.56055883        0.67368935        3.99647378
 C           -1.42885247       -1.55569740        3.49870837
 C            0.49443529       -2.67753740        2.45917223
 C           -0.86632771       -2.67677745        2.76619760
 C            0.89271912       -2.92388162        1.14352526
 C            2.66922934       -1.29585591        1.37976993
 C            1.92378765       -2.16409898        0.57583355
 C            2.90632434        1.09362381        1.36492984
 C            3.21402952       -0.14947449        0.80748112
 C            2.39209655        2.08774826        0.53682107
 C            0.62064366        2.43856183        2.13146945
 C            1.16426432        2.66883783        0.86181878
 C           -1.27606782        1.19388337        2.92202014
 C           -0.76226142        2.31013412        2.26069269
 C           -2.39067205       -0.92443843        2.61214369
 C           -2.24718963        0.41571990        2.28309238
 C           -1.82605502       -3.02798230        1.73871385
 C           -2.69705256       -1.87177723        1.55482632
 C            0.05064198       -3.66724117        0.32110712
 C           -1.37400355       -3.70729467        0.62080671
 C            0.20100210       -3.58381183       -1.11884678
 C            2.08162678       -2.10980711       -0.81687378
 C            1.14453587       -2.71734828       -1.65720707
 C            3.60035261       -0.20211184       -0.52221491
 C            3.02691792       -1.23842628       -1.36229430
 C            2.86763475        2.16503168       -0.76292664
 C            3.61320999        1.03360016       -1.28374266
 C            1.98923478        2.63854147       -1.81289242
 C            0.35261653        3.22039304       -0.13868108
 C            0.74340405        3.15886877       -1.48639944
 C           -1.57385410        2.95855335        1.34401577
 C           -0.94827592        3.59430274        0.20184462
 C           -2.79909931        0.87466124        1.09039136
 C           -2.72933637        2.24009515        0.84256601
 C           -2.95456438       -1.40029131        0.26596859
 C           -2.96603434       -0.02121776        0.02267990
 C           -2.09041706       -3.51607519       -0.62283278
 C           -1.12941636       -3.61812249       -1.70301267
 C           -2.83667428       -2.28389699       -0.80680119
 C           -1.47494866       -2.61938936       -2.69614385
 C           -2.50950029       -1.76902274       -2.12541241
 C            0.92019740       -2.19948652       -2.93382279
 C           -0.44452801       -2.02547677       -3.40603626
 C            2.80473758       -0.66739213       -2.68175003
 C            3.12345236        0.74417067       -2.61880315
 C            2.08815689        1.71120577       -2.93277191
 C            1.69119577       -1.06257718       -3.40181646
 C           -0.58257727       -0.64132478       -3.81955774
 C            0.92078389        1.29251003       -3.57068105
 C            0.74951483       -0.05887924       -3.88790618
 C           -0.21473998        3.17694485       -2.49866255
 C           -0.20408275        2.11188604       -3.48623912
 C           -1.97095108        3.69862140       -0.82041152
 C           -3.01440655        2.74152298       -0.48436813
 C           -1.59891976        3.47406331       -2.19654117
 C           -2.92187955        0.44150130       -1.29931531
 C           -2.44125587       -0.39354169       -2.30901186
 C           -1.62517208        0.12923227       -3.31957681
 C           -1.52758283        1.50630363       -3.47208267
 C           -3.10440109        1.79198327       -1.57082501
 C           -2.40021919        2.36764586       -2.69710264
