   70
C70 / DATE: 7/ 1/2024 / Origin: Program Fullerene / C70 from database
 C            0.99110789       -0.05538936        4.77026069
 C            2.29848308       -0.43180431        4.28340314
 C            2.22824584       -1.82639747        3.87378987
 C            0.13926656       -1.23148086        4.68233678
 C            0.82165294       -2.18466742        3.83218156
 C           -1.17656789       -0.78099495        4.29748892
 C            0.28842407        1.02390795        4.10695358
 C           -1.11192149        0.66220872        4.11640719
 C            0.81051388        1.58534527        2.94419868
 C            2.86413581        0.30432659        3.17237405
 C            2.12155579        1.29741486        2.53091901
 C            3.01948700       -1.96744814        2.66308341
 C            3.58333789       -0.65901595        2.36279919
 C            2.51133524       -2.74171119        1.62755160
 C            0.26088550       -2.56844391        2.61116619
 C            1.10313155       -3.11053204        1.64491030
 C           -1.77197185       -1.32513427        3.09595500
 C           -1.03340488       -2.15773553        2.25127591
 C           -1.91264040        0.98557699        2.94871259
 C           -2.53179418       -0.24504859        2.49993158
 C           -0.05847493        2.24294780        2.07117851
 C           -1.39468989        1.83789097        1.97968554
 C            0.48370891        3.01438472        1.05507578
 C            2.56516217        1.75450946        1.28604949
 C            1.83774351        2.73330122        0.61940289
 C            3.86880919       -0.32287642        1.04782088
 C            3.48029984        0.99251123        0.56315283
 C            2.86752456       -2.42477034        0.25371344
 C            3.59402710       -1.27613938       -0.01793592
 C            0.65581439       -3.20242369        0.27185488
 C            1.73527122       -2.76401970       -0.59260910
 C           -1.47775053       -2.29585501        0.92864438
 C           -0.63093144       -2.82021030       -0.05481513
 C           -2.85494052       -0.35324196        1.15884136
 C           -2.60323689       -1.56444604        0.52898135
 C           -2.03116801        1.86944948        0.73687005
 C           -2.86405799        0.80069210        0.37693696
 C           -0.31476958        3.30841059       -0.12045797
 C           -1.59403207        2.77635800       -0.23032323
 C            1.85877725        2.78117737       -0.83731944
 C            0.56171333        3.27132607       -1.27978642
 C            3.34654827        0.89727281       -0.87991678
 C            3.28764975       -0.51667418       -1.21520059
 C            2.50643223        1.77855011       -1.55522168
 C            1.42289720       -1.97253910       -1.69949694
 C            2.29734406       -0.95048435       -2.09066232
 C           -0.90483229       -2.54789957       -1.38957806
 C            0.10743909       -1.99011965       -2.18574131
 C           -3.09009680       -1.72488292       -0.76199105
 C           -2.23403775       -2.37217776       -1.73330613
 C           -3.35698524        0.70513131       -0.92446292
 C           -3.65911802       -0.56422339       -1.42541400
 C           -2.19465147        2.78210768       -1.48375204
 C           -3.20532433        1.78894432       -1.78610325
 C            0.03485916        2.85767906       -2.49887654
 C           -1.34756684        2.91477359       -2.66048423
 C            1.98440478        1.37440269       -2.78073830
 C            1.89234035       -0.05077076       -3.06685838
 C            0.78788543        2.01010498       -3.31156488
 C           -0.21267455       -1.26864917       -3.34390832
 C            0.65634220       -0.27862392       -3.78401970
 C            0.12701075        1.02404213       -4.15662829
 C           -2.57035642       -1.85182033       -3.04015057
 C           -3.59015176       -0.83265160       -2.85166417
 C           -1.51481045       -1.27162524       -3.83836654
 C           -3.20106272        1.59459770       -3.22844634
 C           -1.97929054        2.18736024       -3.74759874
 C           -1.22870972        1.14695018       -4.42456580
 C           -3.30245562        0.25351113       -3.76374596
 C           -2.04709071       -0.05423856       -4.43219656
