   70
C70 / DATE: 7/ 1/2024 / Origin: Program Fullerene / C70 from database
 C            1.26474203       -0.07907200        4.42571931
 C            2.52116902       -0.33758847        3.76516740
 C            2.47112246       -1.69320972        3.23933401
 C            0.42643892       -1.25902595        4.26125115
 C            1.09544858       -2.13758644        3.33075676
 C           -0.90584457       -0.79606775        3.93821827
 C            0.47575957        1.05823714        3.99950805
 C           -0.90512068        0.64512166        4.13382336
 C            0.84688254        1.79096948        2.87046210
 C            2.92026595        0.52409342        2.67310485
 C            2.05470824        1.51426629        2.20219670
 C            3.10162677       -1.67519291        1.92901690
 C            3.59839854       -0.32665832        1.71418061
 C            2.48012792       -2.33404455        0.86977983
 C            0.45202819       -2.50566516        2.15736712
 C            1.23170174       -2.93217585        1.08802070
 C           -1.57113210       -1.32418923        2.83250124
 C           -0.88152351       -2.13918757        1.92390206
 C           -2.73846244       -0.68718664        2.42003355
 C           -1.88020808        1.39300769        3.49743265
 C           -2.96880640        0.68081681        2.85371703
 C           -0.11363216        2.61287391        2.27052312
 C           -1.46381823        2.45440873        2.59287601
 C            0.20917253        3.32456012        1.12224043
 C            2.30091421        2.06491150        0.94071325
 C            1.45448919        3.04258902        0.43772117
 C            3.73468809        0.12743780        0.41333607
 C            3.15402496        1.40943942        0.05307307
 C            2.88113205       -2.02268936       -0.43395494
 C            3.47275423       -0.78761556       -0.68551292
 C            2.31467262       -2.70542303       -1.50432566
 C            0.59746251       -3.59398325        0.04966222
 C            1.25431419       -3.65414392       -1.23729066
 C           -1.45985420       -2.43453814        0.68266534
 C           -0.81007642       -3.31522487       -0.17410846
 C           -3.16090763       -0.78605375        1.03331644
 C           -2.44071495       -1.59402436        0.16130432
 C           -3.38533287        1.45320695        1.69838877
 C           -2.46037601        2.55493120        1.53585946
 C           -3.55473548        0.53964538        0.59021651
 C           -0.81588139        3.53165570        0.11063720
 C           -2.04269185        2.88861578        0.25254370
 C            1.19724613        3.08458688       -0.99456649
 C           -0.16064287        3.56387877       -1.18667429
 C            2.80583024        1.35752199       -1.35951939
 C            3.00813070       -0.00166739       -1.81836107
 C            1.70186505        2.06919786       -1.80676777
 C            1.94644908       -1.95591122       -2.69728843
 C            2.09479422       -0.56667360       -2.69916784
 C            0.24049575       -3.49862120       -2.26337921
 C           -1.02009246       -3.19467845       -1.60680198
 C            0.74626919       -2.56413316       -3.25207570
 C           -2.43731623       -1.28854639       -1.20581709
 C           -1.78985520       -2.14704374       -2.10532428
 C           -3.15455705        0.94613681       -0.67193402
 C           -2.59239783        2.21806360       -0.84548244
 C           -2.91483726       -0.03799524       -1.62447107
 C           -0.86349455        3.15131024       -2.30596231
 C           -2.19877766        2.60768071       -2.12438548
 C            0.91860509        1.55661673       -2.84548165
 C            1.11713213        0.23748652       -3.29543462
 C           -0.19197007        2.29370077       -3.26342332
 C           -0.16733631       -1.75275158       -3.90176934
 C           -1.53579002       -1.72565578       -3.40993817
 C            0.18976144       -0.37087958       -4.14352400
 C           -2.82996726        0.34615806       -2.95545389
 C           -2.45083287        1.71417761       -3.24374513
 C           -1.23628820        1.66461792       -4.04319389
 C           -2.12593617       -0.49621595       -3.89354121
 C           -1.05141310        0.29939760       -4.47189398
