   70
C70 / DATE: 7/ 1/2024 / Origin: Program Fullerene / C70 from database
 C            1.38062966       -0.07139427        5.15795894
 C            0.59533951       -1.22754513        4.76254657
 C            1.46532320       -2.09089327        4.00234172
 C            2.58790659       -0.06580591        4.34702031
 C            2.68492729       -1.34964948        3.69931272
 C            2.55613799        1.11607394        3.51432989
 C            0.61426077        1.11372747        4.81876955
 C            1.40871877        1.91780226        3.91067287
 C           -0.62237619       -0.74736667        4.13294363
 C           -0.69476657        0.68569075        4.37683976
 C           -1.01282841       -1.25157133        2.88571847
 C            0.97712110       -2.61990010        2.74910399
 C           -0.31389667       -2.32088570        2.30425003
 C            2.86729461       -1.39080850        2.25726714
 C            2.05740381       -2.49082328        1.79474030
 C            2.86502107        1.03198371        2.15698825
 C            2.86385713       -0.21421486        1.50753177
 C            2.62066159        2.17222293        1.41117367
 C            0.76271636        2.66257822        2.92616687
 C            1.51176839        3.02770326        1.81205130
 C           -1.34946213        1.47747989        3.45078356
 C           -0.62783633        2.57169724        2.80705705
 C           -1.90680813       -0.50830529        2.10909540
 C           -2.13690438        0.83199167        2.42133101
 C           -2.27732413       -0.96473592        0.84438660
 C           -0.60835034       -2.68773006        0.98753068
 C           -1.73608833       -2.15610263        0.35852003
 C            1.69462098       -2.52984987        0.46632627
 C            0.46349613       -3.09433121        0.19423520
 C            2.54942869       -0.30171728        0.13800280
 C            2.13766214       -1.52715474       -0.39839409
 C            2.60850862        2.09410159       -0.03226223
 C            2.48886034        0.85067117       -0.64702277
 C            0.84598839        3.46065250        0.59754505
 C            1.77359695        3.18927071       -0.48633942
 C           -1.26897178        2.80589806        1.51689157
 C           -2.28333534        1.78652858        1.33898537
 C           -0.50837904        3.18521544        0.41884515
 C           -2.84135533       -0.05344975       -0.04938388
 C           -2.51548185        1.29021568        0.06881336
 C           -3.31584351       -0.50342433       -1.26615195
 C           -2.03617797       -2.56345789       -0.94839313
 C           -2.99977448       -1.85694762       -1.67089458
 C            0.23124967       -3.43819282       -1.11771296
 C           -1.12348450       -3.38408104       -1.61342505
 C            1.71436970       -1.60523216       -1.73182876
 C            1.05683290       -2.77811975       -2.10876804
 C            1.97924839        0.79142005       -1.94954138
 C            1.50441390       -0.42570418       -2.46410101
 C            1.27453051        3.12687432       -1.76885413
 C            1.65788884        1.99360759       -2.58380779
 C           -0.98030336        2.91111896       -0.86876136
 C           -2.00147691        1.96050273       -1.04358288
 C           -0.15853257        3.25106466       -1.93946760
 C           -3.15183769        0.35659793       -2.42568070
 C           -2.33951043        1.48747978       -2.32155288
 C           -3.00929090       -1.88251460       -3.12639521
 C           -3.03298649       -0.50454477       -3.59286205
 C           -1.00022774       -3.34216942       -3.06072833
 C            0.33539253       -2.83856637       -3.35710294
 C           -1.94861194       -2.56943755       -3.83084859
 C            0.78376570       -0.45122254       -3.67950214
 C           -1.91045724       -0.31377631       -4.49590657
 C            0.18553835       -1.62784309       -4.12175794
 C           -1.19583788       -1.57691791       -4.58008670
 C            0.73143448        1.99461214       -3.69040380
 C           -0.44818128        2.73690145       -3.25799253
 C           -1.58798351        1.86537561       -3.43254408
 C            0.27281970        0.73014049       -4.20411274
 C           -1.16405142        0.84918685       -4.37990664
