   70
C70 / DATE: 7/ 1/2024 / Origin: Program Fullerene / C70 from database
 C            1.24982901        0.00000000        5.44780019
 C            0.51634796       -1.17429757        5.00569168
 C            1.42901461       -2.00981136        4.26392585
 C            2.53475439        0.00000000        4.76723744
 C            2.64700689       -1.24467595        4.03637192
 C            2.64700689        1.24467595        4.03637192
 C            0.51634796        1.17429757        5.00569168
 C            1.42901461        2.00981136        4.26392585
 C           -0.68915923       -0.72461486        4.33929113
 C           -0.68915923        0.72461486        4.33929113
 C           -1.12439505       -1.36118073        3.17908770
 C            0.99519063       -2.52076881        2.97778524
 C           -0.31009031       -2.31576755        2.54256549
 C            2.87136783       -1.21323948        2.59932495
 C            2.05748658       -2.27124176        2.03003395
 C            2.87136783        1.21323948        2.59932495
 C            2.96097481        0.00000000        1.91174756
 C            0.99519063        2.52076881        2.97778524
 C            2.05748658        2.27124176        2.03003395
 C           -1.12439505        1.36118073        3.17908770
 C           -0.31009031        2.31576755        2.54256549
 C           -2.08987051       -0.70048463        2.41795723
 C           -2.08987051        0.70048463        2.41795723
 C           -2.66710931       -1.39946663        1.36469207
 C           -0.59058298       -2.64388587        1.21416372
 C           -1.89146288       -2.46662974        0.77025966
 C            1.71341007       -2.17970845        0.69018089
 C            0.45789647       -2.63384550        0.28250073
 C            2.69068164        0.00000000        0.54149199
 C            2.33010381       -1.19901775       -0.07544799
 C            1.71341007        2.17970845        0.69018089
 C            2.33010381        1.19901775       -0.07544799
 C           -0.59058298        2.64388587        1.21416372
 C            0.45789647        2.63384550        0.28250073
 C           -2.66710931        1.39946663        1.36469207
 C           -1.89146288        2.46662974        0.77025966
 C           -3.34752119       -0.68968598        0.29516160
 C           -3.34752119        0.68968598        0.29516160
 C           -2.16909991       -2.48493955       -0.64791787
 C           -3.08790995       -1.39795821       -0.94443859
 C            0.18293921       -2.62479750       -1.09058024
 C           -1.14035127       -2.73279026       -1.54151904
 C            2.07874447       -1.19059055       -1.44115655
 C            1.16699325       -2.11543797       -1.94691145
 C            2.07874447        1.19059055       -1.44115655
 C            2.27538241        0.00000000       -2.13192363
 C            0.18293921        2.62479750       -1.09058024
 C            1.16699325        2.11543797       -1.94691145
 C           -2.16909991        2.48493955       -0.64791787
 C           -3.08790995        1.39795821       -0.94443859
 C           -1.14035127        2.73279026       -1.54151904
 C           -2.92611243       -0.70240581       -2.14382091
 C           -2.92611243        0.70240581       -2.14382091
 C           -1.42150185       -2.49016879       -2.88144047
 C           -2.33497002       -1.40097115       -3.19868453
 C            0.99565430       -2.19865144       -3.32478082
 C           -0.33327008       -2.45287839       -3.83345839
 C            2.15791518        0.00000000       -3.51681120
 C            1.59609989       -1.17303833       -4.16192450
 C            0.99565430        2.19865144       -3.32478082
 C            1.59609989        1.17303833       -4.16192450
 C           -1.42150185        2.49016879       -2.88144047
 C           -2.33497002        1.40097115       -3.19868453
 C           -0.33327008        2.45287839       -3.83345839
 C           -1.80328678       -0.69381953       -4.34898740
 C           -0.63976323       -1.43179667       -4.82159835
 C            0.59343231       -0.72517423       -5.11609788
 C            0.59343231        0.72517423       -5.11609788
 C           -1.80328678        0.69381953       -4.34898740
 C           -0.63976323        1.43179667       -4.82159835
