   70
C70 / DATE: 7/ 1/2024 / Origin: Program Fullerene / C70 from database
 C            1.55148404        0.16436126        4.82614635
 C            0.78631846       -1.06322861        4.74366229
 C            1.63879784       -2.05783105        4.13308733
 C            2.72322154        0.00907555        3.97578703
 C            2.78729425       -1.37163311        3.55983629
 C            2.65769326        1.03180755        2.95312200
 C            0.73865492        1.22602800        4.26161108
 C            1.54402360        1.90177503        3.27468996
 C           -0.48365477       -0.76187079        4.10203320
 C           -0.51918922        0.66371391        3.81746251
 C           -0.98855519       -1.63497059        3.14466931
 C            1.06716371       -2.87738735        3.08957020
 C           -0.30023775       -2.82594138        2.85507184
 C            2.80943019       -1.66923928        2.13803791
 C            1.94172101       -2.81067699        1.93218784
 C            2.84953871        0.70274593        1.60759308
 C            2.77867079       -0.63856385        1.20391528
 C            2.53272479        1.69090892        0.66948304
 C            0.90507386        2.48392822        2.19834014
 C            1.69222379        2.72806425        1.09007134
 C           -1.03292743        1.09654848        2.59374564
 C           -0.44576466        2.20015765        1.96405641
 C           -1.89590880       -1.12476345        2.21326318
 C           -1.80937528        0.21923071        1.83415811
 C           -2.61276769       -2.01680224        1.43038387
 C           -0.74136820       -3.59049016        1.78552173
 C           -2.06700864       -3.34498439        1.26310511
 C            1.36137022       -3.01008082        0.68114056
 C            0.16222179       -3.71795943        0.64938114
 C            2.36190697       -0.93419084       -0.09205646
 C            1.62419482       -2.10070751       -0.34896900
 C            2.59998392        1.37798264       -0.69161528
 C            2.48592995        0.04152617       -1.07714781
 C            2.38722847        2.39330738       -1.62396110
 C            1.16702776        3.59880288        0.15679644
 C            1.71841794        3.59622929       -1.17819643
 C           -1.01130700        2.68629736        0.77976076
 C           -0.27846773        3.62692269        0.04714862
 C           -2.27210529        0.63084404        0.57922710
 C           -1.98831696        1.92529823        0.13055428
 C           -3.12163964       -1.58720855        0.14215028
 C           -2.93894228       -0.26884180       -0.26283302
 C           -2.03289130       -3.63222684       -0.15615057
 C           -0.63928404       -3.71360714       -0.55896679
 C           -2.87551253       -2.65673018       -0.81550175
 C            0.97680133       -2.25240335       -1.58068109
 C           -0.22475222       -2.96520599       -1.65542441
 C            2.19018657       -0.28928581       -2.39566230
 C            1.37503995       -1.46092398       -2.65488302
 C            1.87345131        2.07429749       -2.94568286
 C            1.80043748        0.74665773       -3.33672773
 C            0.63561995        3.88301406       -2.10054674
 C           -0.60716754        3.89777195       -1.34087881
 C            0.76750642        2.97975333       -3.23103528
 C           -2.48246903        2.34521328       -1.10448020
 C           -1.73731010        3.31634595       -1.89061617
 C           -3.08933633        0.03491653       -1.61600255
 C           -3.02797389        1.36068513       -2.02062027
 C           -2.54641280       -2.30303633       -2.11312346
 C           -1.19571679       -2.58248180       -2.58161343
 C           -2.86712999       -0.96458954       -2.56271615
 C            0.41702240       -1.11636463       -3.69423467
 C            0.64121014        0.26932727       -4.07339447
 C           -0.87751488       -1.60579188       -3.60921760
 C           -2.00588901       -0.69021623       -3.70076199
 C           -0.38539751        2.49743668       -3.83925755
 C           -1.67754077        2.83191131       -3.25995686
 C           -2.52750066        1.66130242       -3.35289917
 C           -0.44319891        1.11528081       -4.28939256
 C           -1.79905733        0.63076579       -4.07156373
