   70
C70 / DATE: 7/ 1/2024 / Origin: Program Fullerene / C70 from database
 C            1.44769272       -0.04877616        5.22899033
 C            0.69863515       -1.21807350        4.81194438
 C            1.48131577       -1.92994419        3.81300804
 C            2.73561501       -0.08943332        4.56129928
 C            2.75289495       -1.25256642        3.68894864
 C            2.83124426        1.08421648        3.71267174
 C            0.72803990        1.11482793        4.74088603
 C            1.58390551        1.81385013        3.79756537
 C           -0.63433194       -0.77482107        4.44474270
 C           -0.57864154        0.67084992        4.28089175
 C           -1.31173295       -1.51474107        3.49026120
 C            0.83435219       -2.35834630        2.65677319
 C           -0.55184678       -2.46326273        2.69298132
 C            1.47011801       -2.24045437        1.41213221
 C            3.15871373       -0.80847846        2.37322637
 C            3.25774940        0.63923492        2.40429871
 C            2.56504759       -1.38215910        1.25284126
 C            2.79310210        1.31895274        1.28865895
 C            1.01310438        2.27163961        2.61528084
 C            1.76888607        2.26360643        1.43746647
 C           -1.09499209        1.24231008        3.11845868
 C           -0.37373504        2.27203552        2.51174324
 C           -2.19788643       -0.82646915        2.56949936
 C           -2.04422793        0.53967170        2.36542773
 C           -1.27703229       -2.65575285        1.45693760
 C           -2.35483571       -1.68767205        1.41320434
 C            0.80685886       -2.67409378        0.26180616
 C           -0.57644688       -2.88181321        0.28854449
 C            1.41184053       -2.45595904       -0.97640948
 C            2.70898877       -0.71368085        0.03539347
 C            2.90644320        0.67033826        0.06778960
 C            2.22337991       -1.32427597       -1.12404876
 C            2.67686824        1.42265308       -1.06747538
 C            1.21769810        2.84412049        0.28602595
 C            1.79300937        2.56647509       -0.95353035
 C           -0.94422974        2.94107570        1.44342154
 C           -0.08936012        3.32595762        0.33281127
 C           -2.51195073        1.09367389        1.17213225
 C           -2.16489224        2.40808892        0.87819690
 C           -2.66480412       -1.11097328        0.18647478
 C           -2.95599473        0.25215906        0.14266917
 C           -1.27800752       -2.75913560       -0.90319449
 C           -2.26775824       -1.76598088       -0.98738421
 C            0.80672968       -3.02281478       -2.09355305
 C           -0.63205152       -3.19592991       -2.04782637
 C            1.14454645       -2.51597567       -3.40329060
 C            2.25705082       -0.62366171       -2.34014237
 C            2.39768145        0.75569024       -2.31881733
 C            1.70750789       -1.18852860       -3.48510386
 C            0.98747167        2.62448122       -2.16599978
 C            1.44627148        1.56874504       -3.05697349
 C           -0.91199776        3.32570368       -0.87019804
 C           -2.24821679        2.88656423       -0.48662836
 C           -0.36882702        2.91475654       -2.08747987
 C           -3.37854836        0.80326496       -1.06278533
 C           -3.00729789        2.17076594       -1.39489374
 C           -2.65417855       -1.23909067       -2.22958378
 C           -3.27688198        0.00682983       -2.27464118
 C           -1.17410768       -2.84872465       -3.33929462
 C           -0.05734083       -2.55059877       -4.21864034
 C           -2.10802204       -1.74711104       -3.41049695
 C            0.82064698       -0.37338133       -4.30722343
 C            0.54538560        0.93633238       -3.91012365
 C           -0.26860911       -1.21937313       -4.75580836
 C           -1.62029736       -0.82227551       -4.42789780
 C           -1.21487095        2.46883330       -3.10027828
 C           -2.60529636        2.19326095       -2.78616600
 C           -2.94620201        0.90816635       -3.36357589
 C           -0.75663542        1.43599419       -4.02093665
 C           -1.87670705        0.52920271       -4.26500354
