   70
C70 / DATE: 7/ 1/2024 / Origin: Program Fullerene / C70 from database
 C            1.18260271       -0.10422123        4.38912453
 C            2.42678824       -0.35075128        3.70179023
 C            2.37724020       -1.71134015        3.19256072
 C            0.34807145       -1.28733817        4.22381850
 C            0.99957555       -2.14283871        3.25981939
 C           -0.99161745       -0.82701186        3.93987114
 C            0.38055826        1.03402585        3.98895065
 C           -0.99499551        0.61317594        4.14440520
 C            0.72717944        1.77789231        2.85972534
 C            2.78567742        0.50551668        2.59043680
 C            1.90387760        1.48489498        2.14639788
 C            3.01837040       -1.70805847        1.89516051
 C            3.42419371       -0.34009841        1.60404240
 C            2.45647081       -2.44985760        0.86242576
 C            0.35222632       -2.44620648        2.06669565
 C            1.12035559       -2.86175466        0.97624022
 C           -1.68136097       -1.34859132        2.84836077
 C           -0.99268763       -2.08794841        1.87410016
 C           -2.88114448       -0.73522202        2.51014107
 C           -1.98526625        1.35887796        3.52781089
 C           -3.09250242        0.64355857        2.92014646
 C           -0.24541820        2.60821654        2.28822668
 C           -1.59276664        2.41409845        2.60434137
 C            0.05649373        3.32497038        1.13461222
 C            2.08182682        1.99437611        0.86192861
 C            1.31598014        3.08154967        0.46306891
 C            3.43703317        0.06650306        0.27278702
 C            2.85331779        1.29057371       -0.07434627
 C            2.99784341       -2.24228146       -0.40097344
 C            3.54845754       -0.93058562       -0.69579048
 C            2.30311542       -2.71655752       -1.58265974
 C            0.47185903       -3.42346630       -0.11624052
 C            1.07310691       -3.34047181       -1.43743154
 C           -1.62729457       -2.41696974        0.66671835
 C           -0.95800563       -3.21816786       -0.25841009
 C           -3.40219369       -0.87232822        1.16714420
 C           -2.79968514       -1.75616694        0.28217012
 C           -3.52602388        1.39538396        1.75581993
 C           -2.57963372        2.46271525        1.53430537
 C           -3.75260411        0.45642551        0.68456007
 C           -0.96499626        3.45451215        0.10731369
 C           -2.14339988        2.72594240        0.24079135
 C            1.12582049        3.35870082       -0.94975449
 C           -0.29937132        3.54265049       -1.17889453
 C            2.84616426        1.68113768       -1.41412978
 C            1.89431091        2.67535524       -1.87878342
 C            3.27392473       -0.63092302       -2.09009080
 C            2.50444133       -1.73729119       -2.64066480
 C            2.97288958        0.67369659       -2.45329843
 C            1.49034634       -1.48906323       -3.55836335
 C            0.01343902       -3.08725603       -2.39944165
 C           -1.24852738       -3.08357110       -1.67720606
 C            0.22101472       -2.19039099       -3.44341374
 C           -3.07555906       -1.57561010       -1.07152883
 C           -2.27221764       -2.23986322       -2.07968048
 C           -3.38742210        0.80118327       -0.61105691
 C           -2.60338158        1.94585740       -0.83374005
 C           -3.37163629       -0.23291353       -1.54239001
 C           -0.90274669        2.97599681       -2.29145733
 C           -2.12616067        2.21003718       -2.11914357
 C            1.28189120        2.17374491       -3.09976207
 C            1.94877804        0.93064055       -3.45428412
 C            1.21501608       -0.12546366       -3.98501495
 C           -0.08890773        2.30787550       -3.29506922
 C           -0.83593598       -1.26981850       -3.83204862
 C           -2.05783528       -1.29932142       -3.17038434
 C           -2.73116620       -0.05421249       -2.83119176
 C           -2.13551779        1.16221034       -3.12679113
 C           -0.22225957        0.00644371       -4.16636863
 C           -0.86001670        1.19519274       -3.82600701
