   70
C70 / DATE: 7/ 1/2024 / Origin: Program Fullerene / C70 from database
 C            1.70149090        0.01910716        4.49843918
 C            0.86786725       -1.16414322        4.40264210
 C            1.41571445       -2.01972571        3.36374936
 C            2.67589922       -0.04053291        3.42401138
 C            2.49400464       -1.29080895        2.71973957
 C            2.57524026        1.18647591        2.66493116
 C            0.85516934        1.17320519        4.25562431
 C            1.47424841        1.96238393        3.20829948
 C           -0.51134475       -0.73151032        4.27867540
 C           -0.49771450        0.70251195        4.03508723
 C           -1.37131363       -1.52588896        3.53952896
 C            0.53333877       -2.73815503        2.56104669
 C           -0.82954309       -2.69060843        2.86012669
 C            0.92667152       -3.07669755        1.26337941
 C            2.54362381       -1.29106140        1.33300453
 C            1.96378653       -2.35850509        0.65680270
 C            2.70227107        1.13464895        1.28208570
 C            2.82066545       -0.10542823        0.63666143
 C            2.24834989        2.22965086        0.55374764
 C            0.65231023        2.62302780        2.30244152
 C            1.21333745        3.00657454        1.08444178
 C           -1.19867455        1.22946484        2.95317119
 C           -0.72928219        2.40332152        2.36415553
 C           -2.29002255       -0.89502250        2.60830808
 C           -2.08927925        0.42546864        2.23475897
 C           -1.79311466       -3.05541514        1.83947390
 C           -2.60371219       -1.87047570        1.57961636
 C            0.06631001       -3.85200371        0.48475178
 C           -1.36049203       -3.81333407        0.76442088
 C            0.23782236       -3.91061371       -0.95839699
 C            2.21620464       -2.49430086       -0.70059036
 C            1.28398941       -3.21760989       -1.54570452
 C            2.92005287       -0.14123762       -0.76142817
 C            2.69016315       -1.33759211       -1.43773056
 C            2.54699946        2.28460381       -0.80003004
 C            2.88013699        1.04919974       -1.48451854
 C            1.74351505        3.09952447       -1.69415635
 C            0.48280097        3.85976531        0.26364219
 C            0.70074484        3.85316863       -1.17283188
 C           -1.54575778        3.02691365        1.42792571
 C           -0.94370423        3.95814046        0.49325043
 C           -2.52684999        0.84319480        0.97886900
 C           -2.48171641        2.19798347        0.68727547
 C           -2.79630680       -1.44690270        0.26331655
 C           -2.65164035       -0.09066111       -0.05639057
 C           -2.04801710       -3.64873117       -0.49984013
 C           -1.07590303       -3.83312448       -1.56293842
 C           -2.74799164       -2.39923759       -0.74649920
 C           -1.32504954       -2.81490530       -2.56372977
 C           -2.42838184       -1.98822798       -2.09412389
 C            1.04610447       -2.41218580       -2.73845387
 C            2.00375594       -1.31451809       -2.72151658
 C           -0.25392171       -2.19228781       -3.20217826
 C            2.23477388        1.07310860       -2.78926229
 C            1.55704719        2.35614900       -2.93002670
 C            1.65961845       -0.09433610       -3.29226429
 C            0.34281338        2.42674880       -3.59849924
 C           -0.60248318        3.84261489       -1.82504520
 C           -1.61329024        3.79998643       -0.78362774
 C           -2.47190502        2.62944353       -0.69491586
 C           -0.79748525        3.05570642       -2.95117946
 C           -2.53019040        0.31693967       -1.39894788
 C           -2.41626865       -0.64093625       -2.41972518
 C           -2.41554174        1.68193994       -1.71088421
 C           -1.87115270        2.07577218       -2.93380414
 C           -0.52640851       -1.02504978       -3.90944861
 C            0.51526161       -0.02584099       -4.08118379
 C           -0.14907714        1.24989431       -4.28846994
 C           -1.74943301       -0.30850088       -3.59165451
 C           -1.54913423        1.07947776       -3.92740515
