   70
C70 / DATE: 7/ 1/2024 / Origin: Program Fullerene / C70 from database
 C            1.34449550        0.04778884        5.15035379
 C            0.56143447       -1.16555345        5.00961441
 C            1.37734139       -2.14162577        4.31244937
 C            2.56498884       -0.12216492        4.37873215
 C            2.60208345       -1.47948268        3.88908311
 C            2.62186104        0.94927378        3.40908705
 C            0.58819200        1.13520497        4.54983077
 C            1.43519061        1.77526660        3.57266661
 C           -0.72294463       -0.80165102        4.43941188
 C           -0.67985828        0.61229147        4.09757485
 C           -1.33269144       -1.67355745        3.54833455
 C            0.81587028       -2.81851753        3.15556747
 C           -0.54539025       -2.72290917        2.90500031
 C            2.74911504       -1.69095655        2.46077780
 C            1.74011023       -2.64858301        2.04879674
 C            3.05654381        0.69524788        2.10968835
 C            3.02707646       -0.61926754        1.60951362
 C            2.89586484        1.74609790        1.21371004
 C            0.85969747        2.30203892        2.42096779
 C            1.73776994        2.60522091        1.38937427
 C           -1.16820379        1.01851380        2.85658208
 C           -0.46363786        1.96488878        2.09481997
 C           -2.20936205       -1.12072864        2.53338019
 C           -2.14916737        0.24023753        2.23877361
 C           -1.01126162       -2.83518434        1.53293814
 C           -2.22728367       -2.05846668        1.42955088
 C            1.25271128       -2.55945717        0.74871090
 C           -0.10175379       -2.77559275        0.48219591
 C            2.84279785       -0.82197730        0.23711317
 C            2.00947095       -1.86663302       -0.18909116
 C            3.05346347        1.50933455       -0.20519922
 C            3.17067807        0.20336570       -0.65184868
 C            1.21734892        2.92105646        0.07749836
 C            2.14473091        2.40453157       -0.90731860
 C           -0.98564133        2.33937392        0.85169694
 C           -0.13322391        2.78649852       -0.16453213
 C           -2.68615570        0.66623205        1.02542891
 C           -2.25717589        1.88738103        0.50367566
 C           -2.59013099       -1.56607093        0.18846314
 C           -3.17536207       -0.31037312        0.15228990
 C           -0.58417506       -2.47257970       -0.79294824
 C           -1.89405576       -1.99290651       -0.94176124
 C            1.64680954       -1.95443901       -1.52855919
 C            0.32703271       -2.31063155       -1.83375077
 C            3.02524808       -0.01745339       -2.01549945
 C            2.42055903       -1.25700863       -2.44788433
 C            1.66737084        2.00754685       -2.15513069
 C            2.40530506        1.02859751       -2.81195549
 C           -0.55627682        2.71878594       -1.48595040
 C            0.30112310        2.16682178       -2.45711575
 C           -2.81843438        2.33970211       -0.68791980
 C           -1.91881132        2.82404592       -1.71998845
 C           -3.76873980        0.08223950       -1.03492636
 C           -3.79986350        1.49658629       -1.33816670
 C           -2.33732403       -1.54757762       -2.19461236
 C           -3.38619663       -0.62279518       -2.24868329
 C           -0.16338897       -2.19736065       -3.13077341
 C           -1.52483418       -1.72740732       -3.31795649
 C            1.93544223       -1.03984224       -3.79516163
 C            1.86790918        0.40177569       -3.99662445
 C            0.65451897       -1.59650269       -4.16510266
 C           -0.22034279        1.65059309       -3.66204985
 C           -1.50391537       -0.71302429       -4.37101967
 C            0.51831383        0.72408680       -4.39575017
 C           -0.12137372       -0.52573840       -4.76105136
 C           -2.44869811        2.43389275       -3.00522235
 C           -3.65069357        1.65321751       -2.77269721
 C           -3.42863059        0.33494903       -3.33835520
 C           -1.59569168        1.67641099       -3.89145995
 C           -2.27777846        0.42492331       -4.20758601
