   70
C70 / DATE: 7/ 1/2024 / Origin: Program Fullerene / C70 from database
 C            1.15023293        0.09020072        4.45055183
 C            2.46575267       -0.19440219        3.92398430
 C            2.48642308       -1.59790949        3.54938809
 C            0.33505872       -1.10455511        4.27920932
 C            1.10693514       -2.05443723        3.51570213
 C           -0.94408856       -0.68735775        3.75817334
 C            0.40514339        1.19804463        3.88868552
 C           -0.97466473        0.76589715        3.77209653
 C            0.94847602        1.95550736        2.85552197
 C            2.92890935        0.55870618        2.77571151
 C            2.07992860        1.48831079        2.16897314
 C            3.28333262       -1.71687000        2.34137559
 C            3.67645117       -0.37050935        1.94690091
 C            2.86135602       -2.61201008        1.36792194
 C            0.59700494       -2.55639901        2.31932032
 C            1.50018378       -3.12561607        1.43179209
 C           -1.48830850       -1.34462959        2.66402108
 C           -0.67057626       -2.15565364        1.85702757
 C           -2.62345326       -0.76823430        2.12006836
 C           -1.80529123        1.42282534        2.86622666
 C           -2.78552063        0.67554310        2.21576132
 C            0.09415069        2.85040442        2.22558940
 C           -1.34133215        2.59885081        2.27757489
 C            0.40613188        3.30917069        0.88895827
 C            2.26546274        1.80227692        0.81494162
 C            1.34848988        2.61163760        0.14627916
 C            3.84331829       -0.07180011        0.60287589
 C            3.23879202        1.13917583        0.07743579
 C            3.16521540       -2.34855764       -0.02899570
 C            3.67221557       -1.11436591       -0.39914353
 C            1.08250060       -3.42652961        0.08569991
 C            2.11081036       -2.94723312       -0.82535582
 C           -1.09933371       -2.52598990        0.56343029
 C           -0.24314605       -3.26014167       -0.27774977
 C           -3.09123673       -1.18868861        0.82287423
 C           -2.36018457       -2.11194035        0.09470660
 C           -3.35480424        1.14269549        0.96141739
 C           -3.63845562       -0.02486063        0.14056990
 C           -1.91542613        3.06846579        1.02494209
 C           -0.84358181        3.70697768        0.27179713
 C           -2.86966366        2.29781710        0.36139898
 C           -0.92008582        3.75112410       -1.10934144
 C            1.22277463        2.53461124       -1.24812186
 C            0.18080276        3.20800476       -1.88928680
 C            3.02423625        0.93812178       -1.34019916
 C            3.18108855       -0.48360243       -1.61073086
 C            1.99984360        1.62754414       -1.97667121
 C            1.71094997       -2.36725755       -2.02921043
 C            2.23768851       -1.12446237       -2.41449242
 C           -0.50435986       -3.32747309       -1.64058044
 C            0.49527238       -2.80228412       -2.55780103
 C           -2.69116284       -2.24573211       -1.24909040
 C           -1.80597201       -2.96008595       -2.13541081
 C           -3.53386958        0.06208730       -1.24669356
 C           -3.19928783       -1.08511912       -1.96522019
 C           -3.05929227        2.47019560       -1.00613609
 C           -2.15550429        3.33542000       -1.74334932
 C           -3.34726353        1.31110988       -1.83934584
 C           -0.37527884        2.66148761       -3.11673794
 C           -1.81878925        2.67705394       -2.99292525
 C           -2.53728091        1.41712403       -3.04488198
 C            1.49842563        1.09051028       -3.15948917
 C            1.57610770       -0.34744574       -3.36485084
 C            0.22613958        1.55099121       -3.68602100
 C           -0.19560822       -2.02056953       -3.56693449
 C           -1.62024099       -2.15566001       -3.33260167
 C           -2.42889340       -0.95863537       -3.19254320
 C           -1.89635129        0.28117740       -3.52802770
 C            0.30970167       -0.78419525       -3.92484291
 C           -0.57699833        0.37214312       -3.98612222
