   70
C70 / DATE: 7/ 1/2024 / Origin: Program Fullerene / C70 from database
 C            1.65101313       -0.02194318        4.67586033
 C            0.82915916       -1.21442964        4.73229878
 C            1.42317095       -2.20107026        3.84704205
 C            2.59933388       -0.19348639        3.58781418
 C            2.39651601       -1.50652359        3.01637072
 C            2.47649606        0.95175958        2.71718047
 C            0.78658797        1.09111741        4.32797417
 C            1.40503134        1.79250835        3.22272667
 C           -0.55360557       -0.82107713        4.50972718
 C           -0.55531392        0.58213353        4.13002465
 C           -1.38844838       -1.70177236        3.83920848
 C            0.58558389       -3.13273180        3.25133081
 C           -0.85245433       -2.98865045        3.42591475
 C            0.81867203       -3.50259042        1.86586791
 C            2.32338048       -1.64048561        1.63069553
 C            1.76048852       -2.80602263        1.10859348
 C            2.54854338        0.76947121        1.34193152
 C            2.51962084       -0.52099936        0.79937961
 C            2.12325578        1.82152998        0.54557297
 C            0.58207311        2.39597664        2.28008743
 C            1.14690420        2.68713249        1.04408455
 C           -1.24180263        0.99644672        2.99083096
 C           -0.79023083        2.13800522        2.32266727
 C           -2.21852750       -1.20537403        2.75332561
 C           -2.08720473        0.10748737        2.31592848
 C           -1.49581659       -3.35811864        2.17797772
 C           -0.46889321       -3.81118106        1.26201430
 C           -2.33581770       -2.25578322        1.75798112
 C           -0.62720304       -3.54610744       -0.09249526
 C            1.74192519       -2.99122789       -0.26637909
 C            0.52857313       -3.51855730       -0.86486140
 C            2.43412547       -0.66608706       -0.59407052
 C            2.22051939       -1.92977119       -1.12940762
 C            2.30334493        1.73094037       -0.82433045
 C            2.27114455        0.46192538       -1.41345961
 C            2.02314505        2.86295465       -1.57611005
 C            0.42056787        3.46905618        0.15198386
 C            0.99627064        3.76269249       -1.08024235
 C           -1.58518291        2.65562247        1.30561969
 C           -0.96887028        3.47041239        0.26979730
 C           -2.51669128        0.42419456        1.02720694
 C           -2.51794885        1.75845672        0.64752380
 C           -2.32368061       -1.90681803        0.41265763
 C           -1.72195246       -2.77532687       -0.50094251
 C           -2.53955330       -0.57406778        0.04745398
 C           -1.89749401       -2.52316289       -1.85651342
 C            0.45924875       -3.03445029       -2.22756294
 C            1.52752873       -2.05622176       -2.39825980
 C           -0.78992859       -2.77032214       -2.76706963
 C            1.83769741        0.30330737       -2.74332258
 C            1.29488981       -0.91510406       -3.15649555
 C            1.86616104        2.74043352       -3.00638195
 C            1.64612524        1.42080702       -3.55699183
 C            0.12889470        4.09125232       -2.19474433
 C            0.75098083        3.58350230       -3.40378582
 C           -1.79499883        3.33072473       -0.92078233
 C           -2.55370791        2.10421895       -0.76211705
 C           -1.24292408        3.62147081       -2.15670221
 C           -2.58098613       -0.23783426       -1.31052481
 C           -2.50394846       -1.26313147       -2.24825147
 C           -2.43622045        1.09719180       -1.71370993
 C           -0.88341513       -1.80425451       -3.84191439
 C            0.23857636       -0.91390240       -4.06706925
 C           -2.04441461       -0.96626177       -3.58557938
 C            0.45296624        1.48674349       -4.38935113
 C           -0.21523624        2.73300176       -4.06964121
 C           -1.40993525        2.66987456       -3.24353264
 C           -1.97440892        1.41598735       -3.00117000
 C           -0.33329337        0.35116279       -4.47984289
 C           -1.66840595        0.39534639       -3.89903954
