   70
C70 / DATE: 7/ 1/2024 / Origin: Program Fullerene / C70 from database
 C            1.59310698        0.05138422        4.48396753
 C            0.79246040       -1.15115588        4.33728263
 C            1.39796013       -1.97255241        3.30238236
 C            2.65530669       -0.00479761        3.49867692
 C            2.62983623       -1.32017113        2.89071020
 C            2.53085740        1.14434271        2.61983051
 C            0.74917098        1.18168691        4.15037807
 C            1.34550409        1.87626648        3.02051933
 C           -0.59013628       -0.74679705        4.17932685
 C           -0.61448901        0.69865543        4.01093254
 C           -1.40789274       -1.51974191        3.37344883
 C            0.58323801       -2.55273277        2.32641421
 C           -0.80462984       -2.50899606        2.48608767
 C            1.12694300       -2.82661486        1.06285238
 C            2.99572721       -1.42005560        1.55986518
 C            2.45666397       -2.46295123        0.81988435
 C            2.77553117        0.94690462        1.26547029
 C            3.36220137       -0.25638745        0.88268898
 C            2.04914170        1.67445482        0.31503601
 C            0.49459010        2.35618838        2.03698484
 C            0.93376092        2.41864319        0.71178257
 C           -1.39867978        1.25574481        3.00350190
 C           -0.87312548        2.32923792        2.28827834
 C           -2.47348364       -0.87066906        2.63271215
 C           -2.43410942        0.50829339        2.43236246
 C           -1.65906989       -2.61720446        1.31704557
 C           -2.79810940       -1.73764461        1.51810493
 C            0.26863970       -3.08672087       -0.01540310
 C           -1.06575454       -2.70273395        0.06547236
 C            0.79575729       -3.35665106       -1.27209084
 C            3.04183430       -2.74227301       -0.40814139
 C            2.23114566       -3.32691178       -1.45455684
 C            3.81584898       -0.37637478       -0.42134519
 C            3.86207593       -1.70537925       -1.00874410
 C            2.27974095        1.43910220       -1.04348684
 C            3.27646069        0.53180669       -1.41790426
 C            1.35814681        1.88715733       -1.99499540
 C            0.08058738        2.97207553       -0.24732123
 C            0.28186556        2.69003168       -1.60626086
 C           -1.70369835        3.01603267        1.42468700
 C           -1.12779290        3.51938324        0.19467521
 C           -3.17074480        1.06596158        1.38212104
 C           -2.97448744        2.41103227        1.07768525
 C           -3.42442115       -1.18709675        0.41462435
 C           -3.76103615        0.22566064        0.43351695
 C           -1.68638460       -2.12796964       -1.04865808
 C           -2.91354270       -1.49215764       -0.91147506
 C            0.18185351       -2.72270125       -2.42580272
 C           -0.96276028       -1.95204121       -2.22757328
 C            2.51392859       -2.62056341       -2.69342807
 C            3.49642111       -1.59250533       -2.40777498
 C            3.15253829       -0.20557992       -2.66541943
 C            1.24654716       -2.22815191       -3.28177117
 C            1.32598378        1.29080060       -3.25813514
 C            2.08563073        0.08099235       -3.50025802
 C            1.12067699       -0.96437621       -3.83743280
 C           -1.20129404       -0.82471406       -3.02700820
 C            0.04606940        1.08867392       -3.90507674
 C           -0.18911080       -0.34012133       -3.85636599
 C           -0.73239269        2.92904115       -2.54121482
 C           -0.99031485        1.92798983       -3.55554840
 C           -2.23057647        3.71530252       -0.72259924
 C           -3.34883547        2.92378170       -0.23023555
 C           -2.03611373        3.39238704       -2.11259888
 C           -3.86946050        0.64887365       -0.95468312
 C           -3.21442806       -0.36430339       -1.77350055
 C           -2.28968832        0.01078955       -2.74723704
 C           -2.26429761        1.33175861       -3.19870714
 C           -3.72688227        1.99088987       -1.27424676
 C           -2.99600994        2.35647135       -2.47230851
