   70
C70 / DATE: 7/ 1/2024 / Origin: Program Fullerene / C70 from database
 C            1.34715084       -0.10003350        4.00992732
 C            2.38130342       -0.20753649        2.99191868
 C            2.30359673       -1.53953071        2.44431436
 C            0.48172541       -1.26169504        3.89028122
 C            1.06304860       -2.14037155        2.91058826
 C           -0.86397193       -0.79710312        3.66593006
 C            0.50673872        1.08389116        4.02690011
 C           -0.86301095        0.65125428        3.79599936
 C            0.96777079        2.22159561        3.38627022
 C            2.59779236        0.86915239        2.14448702
 C            2.17774948        2.12259505        2.58685303
 C            2.82978516        0.64441705        0.77610173
 C            2.67221268       -1.76907772        1.12881334
 C            2.89936003       -0.67448259        0.27368880
 C            2.23292171       -2.97408931        0.59265370
 C            0.24439118       -2.75677959        1.97125437
 C            0.90983182       -3.44685909        0.97119345
 C           -1.63382827       -1.36996937        2.65558425
 C           -1.03189428       -2.22341683        1.71127879
 C           -2.80440732       -0.70170980        2.32651304
 C           -1.70166329        1.38333929        2.95902263
 C           -2.85193073        0.74248121        2.51459986
 C            0.02967132        3.01937045        2.61930890
 C           -1.17073025        2.44326430        2.20970032
 C            2.16598768        3.23764831        1.67288027
 C            0.81432938        3.78363865        1.66635495
 C            2.99157935        1.74173341       -0.08766067
 C            2.54493320        3.00331050        0.30087654
 C            3.16126285        1.52894055       -1.44845083
 C            3.09471452       -0.89695959       -1.10279827
 C            3.13815283        0.18383056       -1.97178151
 C            2.41603787       -3.23483954       -0.81029153
 C            2.74573602       -2.12287370       -1.66583022
 C            0.21190478       -3.81645655       -0.23563280
 C            1.19362981       -3.84255081       -1.30939238
 C           -1.65963777       -2.46017018        0.46763968
 C           -1.04255900       -3.28247596       -0.49143492
 C           -3.49214502       -1.01551872        1.09678386
 C           -2.90526812       -1.87563150        0.17940506
 C           -3.58974628        1.31187746        1.41091143
 C           -4.09358131        0.21485016        0.60608339
 C           -1.65266821        2.70975096        0.91812081
 C           -2.89877909        2.23062034        0.53381152
 C            0.37831847        3.83371995        0.28528331
 C            1.56803966        3.68805986       -0.52904242
 C           -0.77592912        3.14964801       -0.07623218
 C            2.42624434        2.37243326       -2.37827350
 C            1.42749452        3.27908833       -1.84409302
 C            2.26510773        0.16812663       -3.13833970
 C            1.77123267        1.50998889       -3.34380225
 C            1.81554845       -2.12931057       -2.78358059
 C            0.86181123       -3.20747908       -2.57226454
 C            1.39173656       -0.90240153       -3.28847800
 C           -1.45769495       -3.23989006       -1.82151021
 C           -0.47425573       -2.98737869       -2.86169070
 C           -3.33631651       -1.77526534       -1.14201566
 C           -2.64191460       -2.49907417       -2.17873147
 C           -3.90487314        0.56517822       -0.78909812
 C           -3.06377162        1.75308241       -0.82776680
 C           -3.64712909       -0.46185158       -1.68077990
 C           -0.92359098        2.68068440       -1.38627871
 C            0.12655527        2.80468841       -2.29418523
 C            0.34554795        1.73131866       -3.24765189
 C           -1.96638545        1.80376181       -1.68547671
 C            0.01884006       -0.65585008       -3.43402345
 C           -0.85459081       -1.73933069       -3.49608232
 C           -2.26254212       -1.53641765       -3.20561791
 C           -2.69997513       -0.23118022       -2.75291966
 C           -0.49899588        0.62902790       -3.20515658
 C           -1.75600851        0.77919250       -2.61496894
