   70
C70 / DATE: 7/ 1/2024 / Origin: Program Fullerene / C70 from database
 C            1.30700443       -0.06114989        5.75165095
 C            0.46101874       -1.23321555        5.63077168
 C            1.14289443       -2.17325603        4.76391160
 C            2.47352412       -0.26143831        4.90364641
 C            2.28430001       -1.49547010        4.17126425
 C            2.66804267        0.95305255        4.15461868
 C            0.57457165        1.06601903        5.20466885
 C            1.50765298        1.80718480        4.38973124
 C           -0.75691388       -0.83894477        4.94233212
 C           -0.63292631        0.55787740        4.57453050
 C            0.14768245       -2.71756452        3.86514926
 C           -0.98769277       -1.80435413        3.88319365
 C            0.58972543       -3.15257330        2.62917918
 C            2.42137512       -1.52782452        2.77779681
 C            1.84162995       -2.60434490        2.11741560
 C            2.84473263        0.86456003        2.71650204
 C            2.71428161       -0.35773878        2.05109881
 C            1.06246294        2.26576426        3.09195022
 C            2.14635798        2.00489022        2.17284933
 C           -0.92727115        0.92268580        3.25951848
 C           -0.22706949        1.97064825        2.65087695
 C           -1.48889829       -1.35238631        2.66266395
 C           -1.62819877        0.02374838        2.44990849
 C           -0.34209444       -3.11371053        1.52316333
 C           -1.38214440       -2.19175711        1.55146360
 C            1.74855737       -2.59596074        0.67261946
 C            0.46793749       -3.18573627        0.33281711
 C            2.50252984       -0.31508368        0.65764375
 C            2.16343194       -1.47705466       -0.04477038
 C            1.81518140        1.97519477        0.83617152
 C            2.29417215        0.93099239        0.05269005
 C           -0.49691175        2.24396930        1.30949347
 C            0.58840913        2.51317929        0.47915319
 C           -2.08032927        0.45704404        1.20626043
 C           -1.63274665        1.68991686        0.72601716
 C           -1.90984632       -1.76015030        0.33428816
 C           -2.50620593       -0.50461191        0.29387505
 C           -0.09736009       -2.79173132       -0.85851031
 C           -1.40418053       -2.30564815       -0.85285361
 C            1.73640900       -1.37698285       -1.37708317
 C            0.76417857       -2.28157397       -1.80999178
 C            2.00804467        1.00806646       -1.30943906
 C            1.87690755       -0.16236779       -2.05590245
 C            0.35607475        2.66491380       -0.87574345
 C            1.31516103        2.13758134       -1.73548720
 C           -1.93751939        2.05537628       -0.58873757
 C           -0.96186197        2.74023409       -1.31748962
 C           -3.07995222       -0.07775297       -0.89231396
 C           -2.89346087        1.30804453       -1.27221839
 C           -1.94304958       -1.90103021       -2.07849090
 C           -2.89721769       -0.88230564       -2.08744967
 C            0.26297071       -2.17720558       -3.09065758
 C           -1.18246934       -2.13911525       -3.22602974
 C            1.44339837       -0.06434980       -3.38949671
 C            0.79304300       -1.15766671       -3.96409077
 C            1.16593481        2.34929903       -3.09366857
 C            1.31916594        1.20441794       -3.96830672
 C           -1.17648661        3.03979036       -2.66120713
 C           -0.01254322        3.07419788       -3.52835836
 C           -2.97332591        1.38319741       -2.72159742
 C           -3.01163475        0.01572127       -3.23062169
 C           -2.23434400        2.35369199       -3.38393471
 C           -1.47819292       -1.43703851       -4.46172460
 C           -0.20999765       -0.96985896       -5.00228059
 C           -2.38406576       -0.30798775       -4.42962609
 C            0.44716431        1.41856360       -5.11724497
 C           -0.39431838        2.56878934       -4.83213312
 C           -1.76531986        2.09807465       -4.73621587
 C           -0.42427629        0.34966277       -5.55129504
 C           -1.79510272        0.74059166       -5.24591410
