   70
C70 / DATE: 7/ 1/2024 / Origin: Program Fullerene / C70 from database
 C            1.17629599       -0.02791332        4.36892094
 C            2.47640350       -0.28433458        3.79792839
 C            2.44841546       -1.62009835        3.22336693
 C            0.34725524       -1.19815132        4.12210025
 C            1.07277350       -2.06929563        3.22731063
 C           -0.95653876       -0.73212894        3.70965992
 C            0.43526782        1.13120891        3.91493820
 C           -0.95004736        0.72170368        3.75919159
 C            0.98612137        2.00312744        2.97859185
 C            2.97614748        0.61625011        2.77949860
 C            2.24511441        1.74303636        2.40859498
 C            3.14282657       -1.56780832        1.95214892
 C            3.58679281       -0.19734794        1.74056348
 C            2.62282103       -2.26476221        0.86904520
 C            0.49524847       -2.42319037        2.01317597
 C            1.32849129       -2.79299841        0.95642070
 C           -1.59742893       -1.34832353        2.64381433
 C           -0.86319271       -2.16452436        1.76994098
 C           -2.73939467       -0.72031084        2.17572750
 C           -1.77471065        1.42346745        2.87939339
 C           -2.81186560        0.73152895        2.25389464
 C            0.12208461        2.91574743        2.37892622
 C           -1.29871539        2.60268939        2.30379181
 C            0.49892490        3.59226966        1.15175215
 C            2.62985220        2.39082153        1.23793669
 C            1.73530167        3.32869086        0.58506229
 C            3.65350459        0.29789009        0.43695658
 C            3.32213489        1.63336182        0.20452410
 C            3.14922695       -1.96155400       -0.38008161
 C            3.61760904       -0.60692614       -0.62507008
 C            2.49017810       -2.43842021       -1.58219071
 C            0.76347001       -3.41764284       -0.14744600
 C            1.36205758       -3.23687821       -1.46000341
 C           -1.43802543       -2.59883765        0.56616949
 C           -0.67874700       -3.37925589       -0.30522988
 C           -3.31832320       -1.13003519        0.91584758
 C           -2.66359057       -2.07596384        0.13581713
 C           -3.33654861        1.20711529        0.98415309
 C           -3.87706319        0.05710003        0.28571764
 C           -1.77545248        3.01409723        0.98999750
 C           -0.68294409        3.68510030        0.30853498
 C           -2.63621746        2.18078084        0.28035323
 C           -0.56395379        3.55784693       -1.06650705
 C            1.84982509        3.13164759       -0.85166434
 C            2.76315951        2.02638780       -1.08096757
 C            0.73154266        3.26335771       -1.65998974
 C            3.08466626       -0.18914794       -1.91254604
 C            2.51332170       -1.35866873       -2.55716051
 C            2.45463929        1.04662343       -2.02040883
 C            1.45103830       -1.19569835       -3.43239060
 C            0.28617203       -3.12105883       -2.43031126
 C           -0.96525285       -3.36209213       -1.72970312
 C            0.34909320       -2.14499916       -3.41953500
 C           -3.05877743       -2.22239540       -1.19378625
 C           -2.13078993       -2.75681646       -2.17305064
 C           -3.97757349        0.09685649       -1.09385008
 C           -3.78487160       -1.13820469       -1.83200966
 C           -2.57902867        2.13216288       -1.11910497
 C           -1.57002772        2.81006559       -1.79943840
 C           -3.29377406        1.15781215       -1.81567763
 C            0.52189562        2.31471184       -2.73903632
 C            1.34894742        1.20248972       -2.86596038
 C            0.89604635        0.13149533       -3.63215297
 C           -0.91246215        2.15813131       -2.92075420
 C           -0.85637919       -1.43045228       -3.80567255
 C           -2.08380016       -1.82623412       -3.29287590
 C           -3.10229206       -0.81839780       -3.07339361
 C           -2.70828619        0.57769590       -3.01668301
 C           -0.53094830       -0.01127164       -3.88447921
 C           -1.41764328        0.94886763       -3.39063632
