   70
C70 / DATE: 7/ 1/2024 / Origin: Program Fullerene / C70 from database
 C            1.15605424       -0.05828528        4.65349187
 C            2.40188778       -0.42498781        4.02258192
 C            2.24293239       -1.76871696        3.47916272
 C            0.30046998       -1.23166330        4.62222905
 C            0.85035627       -2.12971327        3.62265750
 C           -1.05755562       -0.76278229        4.45232633
 C            0.39312453        1.03731144        4.08980976
 C           -1.00470545        0.67250880        4.20921913
 C            0.81855036        1.64136779        2.90892952
 C            2.90431700        0.40267780        2.94471515
 C            2.12008405        1.43457268        2.42577388
 C            2.82617499       -1.76263651        2.15443790
 C            3.54114039       -0.50735295        2.01853060
 C            2.08180661       -2.21809815        1.07105669
 C            0.09944952       -2.41949323        2.48328220
 C            0.73881990       -2.59217980        1.24357224
 C           -1.85343913       -1.33901580        3.38997832
 C           -1.29306944       -2.28819088        2.53824271
 C           -1.89642760        0.96147505        3.09620015
 C           -2.61867348       -0.25847853        2.79717175
 C           -0.13377492        2.24276948        2.08581141
 C           -1.42956060        1.72568009        2.03335546
 C            0.29830410        3.07140103        1.06497757
 C            2.48216462        1.97782070        1.18848120
 C            1.66876362        2.94393859        0.60588715
 C            3.81051044       -0.04736024        0.74235196
 C            3.40886991        1.30566198        0.39231296
 C            2.56044711       -1.93804283       -0.20902083
 C            3.46025255       -0.89111303       -0.38734852
 C            1.88054276       -2.42616349       -1.31314768
 C           -0.00171253       -3.02996172        0.13985760
 C            0.57336807       -3.02202290       -1.12646890
 C           -2.04865538       -2.64872475        1.43214843
 C           -1.38345046       -3.12669079        0.23682287
 C           -3.10188450       -0.44320258        1.50903542
 C           -3.10039984       -1.74149209        1.00566296
 C           -2.08150169        1.62672748        0.80062859
 C           -3.03555005        0.62001242        0.60689301
 C           -0.54743247        3.24744697       -0.10052944
 C           -1.65092977        2.41622004       -0.27237970
 C            1.66975103        3.11988522       -0.84065469
 C            0.32315625        3.52356116       -1.22666020
 C            3.28046807        1.34872384       -1.05565182
 C            3.31916987       -0.02279670       -1.54352171
 C            2.40293272        2.24814095       -1.64859550
 C            1.85178918       -1.64356480       -2.54167011
 C            2.47366832       -0.39653875       -2.58466016
 C           -0.24247535       -2.68494974       -2.28451902
 C            0.54424072       -1.82331391       -3.15437986
 C           -2.21003776       -2.76015821       -0.90674920
 C           -3.31987409       -1.95424356       -0.41146973
 C           -1.60228718       -2.44095354       -2.12247695
 C           -3.61661389        0.45605051       -0.64585181
 C           -3.77547380       -0.89168890       -1.17445857
 C           -2.16502545        2.21200753       -1.55614906
 C           -3.21558703        1.31987530       -1.73932608
 C           -0.13229320        3.25172896       -2.50593644
 C           -1.43416514        2.62584705       -2.67418904
 C            1.96876833        1.97882745       -2.94328450
 C            1.95141455        0.59846244       -3.40663949
 C            0.77780307        2.63409328       -3.44965582
 C           -0.06556052       -0.75475022       -3.80400006
 C           -1.36311849        1.76171309       -3.84595543
 C            0.69149753        0.37648404       -4.09992865
 C            0.02931974        1.66182259       -4.22788265
 C           -2.24766337       -1.58694633       -3.01562552
 C           -3.42535053       -0.85961991       -2.57826611
 C           -3.25708101        0.53007126       -2.95719190
 C           -1.45975237       -0.68783357       -3.84748950
 C           -2.13128850        0.60884033       -3.86586134
