   70
C70 / DATE: 7/ 1/2024 / Origin: Program Fullerene / C70 from database
 C            1.55781083        0.18239810        4.87443209
 C            0.73036472       -1.00010900        4.71442752
 C            1.43058467       -1.90827062        3.82916126
 C            2.62587685        0.11246674        3.89012006
 C            2.59232451       -1.20244892        3.30641691
 C            2.49505087        1.24621345        3.00377761
 C            0.74543307        1.33543107        4.54422496
 C            1.48964542        2.12393846        3.58386190
 C           -0.60388801       -0.57379869        4.34708769
 C           -0.57656997        0.86905049        4.15968169
 C           -1.31785575       -1.35269809        3.45395243
 C            0.70115336       -2.70801084        2.94766249
 C           -0.67638632       -2.49976296        2.81571339
 C            1.39928474       -3.27264477        1.88234524
 C            2.87319443       -1.35123819        1.95832693
 C            2.62567283       -2.61680768        1.45778567
 C            2.50180000        1.03802910        1.61920066
 C            2.73273025       -0.24375604        1.09625716
 C            1.97864891        2.03528716        0.79232083
 C            0.76290249        2.91778334        2.72072311
 C            1.25935171        3.07933377        1.37438480
 C           -1.17689559        1.44497998        3.03678333
 C           -0.66315630        2.65509079        2.57732972
 C           -2.13464287       -0.69830462        2.45218863
 C           -1.95125326        0.65765771        2.17536228
 C           -1.32382441       -2.69402114        1.52166222
 C           -2.28946884       -1.62773914        1.34831328
 C            0.68913689       -3.65217044        0.67382152
 C           -0.57381495       -3.11805031        0.42973829
 C            2.79690502       -2.85480045        0.04976826
 C            1.67130834       -3.66418109       -0.38652083
 C            2.63083792       -0.44442656       -0.29145489
 C            2.86735467       -1.70526394       -0.82332499
 C            1.85413352        1.81628765       -0.58308105
 C            2.03353362        0.53009103       -1.09871023
 C            1.22727718        2.78987478       -1.35612912
 C            0.16022772        3.66217497        0.64080599
 C           -1.04572924        3.14751115        1.26763898
 C            0.22829925        3.64572731       -0.73613102
 C           -2.32437996        1.13807382        0.91188611
 C           -1.93264196        2.41501760        0.48953106
 C           -2.49335978       -1.10817982        0.08522031
 C           -2.83479696        0.23284481       -0.02257026
 C           -0.92631800       -2.69451190       -0.86553413
 C           -1.97282540       -1.76831648       -1.02756965
 C            1.27654432       -3.16931207       -1.67765506
 C            2.18180894       -2.08860956       -2.03337715
 C           -0.07184860       -2.97951944       -1.94347365
 C            1.62006571        0.21750119       -2.41394362
 C            1.67540389       -1.11012087       -2.87201097
 C            0.73425139        2.45372077       -2.67624155
 C            0.95715166        1.18424441       -3.19350715
 C           -0.99938488        3.43681456       -1.47532432
 C           -2.05112017        2.75443261       -0.86026365
 C           -0.58592009        3.05962962       -2.81238175
 C           -3.29044004        0.69379234       -1.24631524
 C           -2.94550182        2.04228354       -1.64989013
 C           -2.32044476       -1.30219438       -2.29945952
 C           -3.13309112       -0.16816293       -2.40454983
 C           -0.34300905       -2.41759938       -3.18212019
 C            0.68287592       -1.55024142       -3.73703403
 C           -1.60550123       -1.75253822       -3.40436859
 C            0.21745066        0.80153875       -4.31546246
 C            0.03553641       -0.60040871       -4.60192316
 C           -1.39116547       -0.87561310       -4.54590909
 C           -1.51508321        2.47569834       -3.65903203
 C           -2.78307989        2.04435948       -3.09606990
 C           -3.04782839        0.69656345       -3.57076796
 C           -1.06305982        1.44103084       -4.56914022
 C           -2.07764661        0.39695860       -4.60066703
