   70
C70 / DATE: 7/ 1/2024 / Origin: Program Fullerene / C70 from database
 C            1.61947159        0.08699539        4.60264632
 C            0.81239245       -1.11535880        4.50920796
 C            1.45133583       -2.01191350        3.56425684
 C            2.68844089       -0.01786235        3.62348620
 C            2.63045887       -1.33695929        3.03686769
 C            2.59932681        1.12056866        2.73632681
 C            0.78114246        1.20796311        4.21944705
 C            1.44033919        1.89882065        3.13595793
 C           -0.55700309       -0.71525943        4.26200990
 C           -0.56050521        0.71522067        3.99001130
 C           -1.34722367       -1.53994878        3.47785007
 C            0.66324468       -2.76249859        2.69088048
 C           -0.72823203       -2.62460967        2.72267529
 C            1.26695571       -3.27410339        1.54481379
 C            2.92228683       -1.48352443        1.68640196
 C            2.49781137       -2.65928323        1.07737018
 C            2.81980648        0.92996175        1.37262658
 C            3.15204967       -0.34581319        0.89764169
 C            2.31002687        1.88298611        0.48199280
 C            0.66727276        2.44222251        2.12560924
 C            1.30955464        2.75094114        0.94002199
 C           -1.27057269        1.19353535        2.88925349
 C           -0.71234724        2.20216307        2.08754182
 C           -2.35318722       -0.93673708        2.62430246
 C           -2.33824533        0.43804207        2.40350548
 C           -1.50443568       -2.80888984        1.50148226
 C           -2.56959547       -1.82599329        1.49508228
 C            0.45998985       -3.56828268        0.37268034
 C           -0.85309102       -3.10940863        0.31414739
 C            2.54852536       -2.79281016       -0.36691760
 C            1.32247186       -3.45128470       -0.79150199
 C            3.41571066       -0.50444882       -0.45979046
 C            3.07235865       -1.75335504       -1.12059110
 C            2.58773054        1.77018896       -0.88751246
 C            3.10991838        0.57911645       -1.37646778
 C            1.96660102        2.62070676       -1.79826089
 C            0.63612357        3.57558351        0.05952009
 C            1.07906553        3.65202906       -1.31133254
 C           -1.45403104        2.72882539        1.01998944
 C           -0.81428793        3.53275257        0.07399653
 C           -3.09221883        0.93154049        1.34848851
 C           -2.67795784        2.15578450        0.68998441
 C           -2.98438615       -1.27586643        0.28926483
 C           -3.52970636        0.00531552        0.31736719
 C           -1.37832175       -2.65378976       -0.89856011
 C           -2.47398840       -1.77899298       -0.91103492
 C            0.75499920       -3.13166451       -2.01507631
 C           -0.67604940       -2.90216487       -2.07691074
 C            2.49295661       -1.43617771       -2.41672682
 C            2.53048555        0.00492240       -2.58193670
 C            1.39182521       -2.14313869       -2.87406493
 C            1.36920930        2.04766148       -2.99587564
 C            1.47880500        0.67338953       -3.20835037
 C           -0.09881742        3.67521956       -2.15983670
 C           -1.26672534        3.51641917       -1.31004268
 C            0.11043077        2.73293815       -3.24205369
 C           -3.07801873        2.06424314       -0.70875604
 C           -3.68395060        0.75415602       -0.91448194
 C           -2.26793850        2.62934109       -1.69290829
 C           -2.91160631       -1.22783503       -2.11822520
 C           -3.50815532        0.09886806       -2.12210762
 C           -0.92052512       -2.08327802       -3.24658625
 C            0.34013865       -1.43644485       -3.58381358
 C            0.38797256       -0.04726454       -3.71488751
 C           -2.09164590       -1.34919900       -3.31353414
 C           -0.97295370        2.00446907       -3.70048130
 C           -2.23368874        2.07167626       -2.97288814
 C           -2.95028431        0.83669235       -3.23737510
 C           -0.77354701        0.62357487       -4.09625997
 C           -2.05399203       -0.05067358       -3.95955906
