   70
C70 / DATE: 7/ 1/2024 / Origin: Program Fullerene / C70 from database
 C            1.30657466       -0.02266317        4.34943380
 C            2.56747954       -0.41140403        3.76140513
 C            2.55157080       -1.85106507        3.57865436
 C            0.45308873       -1.19894732        4.40097676
 C            1.22905709       -2.33680221        3.94694275
 C           -0.78345288       -0.87405601        3.71128728
 C            0.55092866        1.03533308        3.70939706
 C           -0.80330538        0.56610125        3.51730301
 C            1.12052109        1.77361039        2.68176336
 C            2.94993867        0.18981334        2.49964243
 C            2.26671408        1.29915271        2.02453785
 C            3.06906720       -2.13786451        2.24759961
 C            3.24495538       -0.87119739        1.55492822
 C            2.55479598       -3.21888640        1.55180653
 C            0.61587877       -3.27792381        3.13176586
 C            1.41562026       -3.92957348        2.11139376
 C           -1.22992215       -1.69994345        2.68123460
 C           -0.68241741       -2.97160350        2.53820655
 C           -1.95301396       -1.13368930        1.63009346
 C           -1.52126973        1.07848010        2.44452144
 C           -2.33153884        0.20576547        1.72830296
 C            0.27623643        2.62331696        1.97126192
 C           -1.06787935        2.24364367        1.81359003
 C            0.87530136        3.42804152        1.01394472
 C            2.42528440        1.61016728        0.67977435
 C            1.97307009        2.85091203        0.26646722
 C            2.81947380       -0.72448753        0.23025052
 C            2.50593143        0.55842549       -0.24003988
 C            2.33129464       -3.09651926        0.12221724
 C            2.42039788       -1.84688960       -0.50127362
 C            0.53124652       -4.27848305        1.01770710
 C           -0.75040609       -3.63370682        1.24838122
 C            1.22814481       -3.98245530       -0.21673127
 C           -2.03069643       -1.78213907        0.38950533
 C           -1.36587752       -2.99083812        0.17834459
 C           -2.62234882       -1.12437963       -0.69211724
 C           -3.18689523        0.73674906        0.77738228
 C           -3.42842606       -0.02258198       -0.43349304
 C           -1.85155047        2.79336973        0.78690529
 C           -3.01069961        2.12569603        0.39411299
 C            0.04936355        4.17514219        0.09589952
 C           -1.33885263        3.79815332       -0.03443115
 C            1.72087999        3.08576979       -1.13603798
 C            0.66192118        4.07929085       -1.21831696
 C            2.00835556        0.72331115       -1.54040633
 C            1.70294121        2.01073701       -2.01563880
 C            1.82483139       -1.67637572       -1.75171580
 C            1.77126263       -0.40839461       -2.33382079
 C            0.46048795       -3.66044320       -1.31889151
 C           -0.93684594       -3.30453904       -1.10905402
 C            0.97717178       -2.67309721       -2.23731731
 C           -2.14159749       -1.34807036       -1.98844498
 C           -1.32687179       -2.45249520       -2.22247582
 C           -0.14968136       -2.29326669       -3.06143858
 C           -2.17190799       -0.32200556       -2.94294177
 C           -3.70503418        0.92165602       -1.49657125
 C           -3.48732658        2.26077670       -0.97148291
 C           -2.96576404        0.80230233       -2.73416207
 C           -1.65483899        3.80489586       -1.45694925
 C           -0.39869970        3.88770266       -2.19075188
 C           -2.68078666        2.99500490       -1.92929419
 C           -2.44590728        2.12167185       -3.06956414
 C            1.01764773        2.17493751       -3.21663050
 C           -0.16545752        3.02294824       -3.25203105
 C           -1.25705305        2.22337284       -3.78378071
 C            1.10428739       -0.28174539       -3.55299292
 C           -0.03242413       -1.14420092       -3.81545080
 C           -1.18400017       -0.27189858       -3.92487240
 C            0.75392566        1.02948378       -4.05078303
 C           -0.67289887        1.01889736       -4.34703716
