   70
C70 / DATE: 7/ 1/2024 / Origin: Program Fullerene / C70 from database
 C            1.57887539        0.00741334        4.69644825
 C            0.78353706       -1.20162115        4.66308664
 C            1.42101255       -2.12707055        3.74005934
 C            2.60430075       -0.11761089        3.67485661
 C            2.39601031       -1.36762951        2.97518704
 C            2.58045084        1.09804994        2.89721566
 C            0.71399661        1.10843100        4.30842504
 C            1.40988026        1.85730550        3.28955635
 C           -0.59735450       -0.81797385        4.41655474
 C           -0.58617605        0.56659567        3.97466798
 C           -1.40887514       -1.72020916        3.75154747
 C            0.61399279       -3.03220954        3.07354099
 C           -0.81943425       -2.97624763        3.31462467
 C            0.80211612       -3.22314951        1.64434124
 C            2.31843625       -1.34512528        1.58131135
 C            1.57399478       -2.31847514        0.91136463
 C            2.83465075        1.02715750        1.53592184
 C            2.75562238       -0.21453518        0.88523468
 C            2.53742973        2.16571312        0.79493390
 C            0.67722228        2.42651518        2.25902393
 C            1.40718356        2.89884865        1.17376247
 C           -1.15287733        0.90634017        2.74469540
 C           -0.63386547        1.98387864        2.02121749
 C           -2.25265413       -1.24185076        2.66817112
 C           -2.04263783        0.02727080        2.12346298
 C           -1.48697968       -3.37423138        2.09307633
 C           -0.46997896       -3.66068968        1.09911598
 C           -2.47385026       -2.36105857        1.77074090
 C           -0.75854659       -3.33726345       -0.21541349
 C            1.33836396       -2.19093845       -0.46252070
 C            0.28361030       -2.91214930       -1.03212592
 C            2.76815164       -0.23567700       -0.51156297
 C            1.96970595       -1.17099912       -1.19040074
 C            2.98173005        2.19287721       -0.51754964
 C            3.20383873        0.91619810       -1.16579150
 C            2.36398993        3.08630662       -1.48008426
 C            0.72093192        3.65926973        0.24017035
 C            1.24425018        3.81259436       -1.10480350
 C           -1.26635038        2.38108282        0.84059403
 C           -0.71047421        3.45501954        0.14608882
 C           -2.46380586        0.27511325        0.81177283
 C           -2.11140095        1.47597851        0.17736349
 C           -2.68713465       -2.08650530        0.43094856
 C           -2.04583440       -2.89150383       -0.50840193
 C           -3.00199279       -0.78120776        0.06904876
 C           -2.39999716       -2.74773719       -1.84332615
 C            0.03300121       -2.80715915       -2.39162913
 C           -1.35015013       -2.85151531       -2.84158702
 C            1.72130420       -1.03515843       -2.56899947
 C            0.71065160       -1.78493975       -3.15720538
 C            2.93772554        1.08793017       -2.57399597
 C            2.38803683        2.42093183       -2.77189184
 C            2.06052575        0.14559439       -3.21992467
 C            1.15742384        2.29051934       -3.53680523
 C            1.00627731        0.89210526       -3.89020916
 C            0.10905446        3.89908985       -2.00808863
 C           -1.09982694        3.70668163       -1.22081380
 C            0.03911883        3.01584842       -3.16199537
 C           -2.52368090        1.71810177       -1.14631357
 C           -1.91245886        2.72245999       -1.88839350
 C           -1.25267370        2.35725345       -3.13310472
 C           -3.43123619       -0.56032077       -1.23059394
 C           -3.24412300       -1.62309986       -2.20681857
 C           -3.10745901        0.69144098       -1.87760077
 C           -1.54544539       -1.78863797       -3.81368305
 C           -0.28910843       -1.08421362       -3.95015549
 C           -0.25762081        0.31072069       -3.97208760
 C           -1.39543116        1.04870309       -3.59074717
 C           -2.71032116       -1.03311688       -3.42328965
 C           -2.55664838        0.38649041       -3.19021735
