   70
C70 / DATE: 7/ 1/2024 / Origin: Program Fullerene / C70 from database
 C            1.36245589       -0.10999456        4.22242082
 C            2.39214722       -0.30169641        3.21524384
 C            2.36332650       -1.70664693        2.85416972
 C            0.50647221       -1.28713780        4.19994196
 C            1.03743598       -2.19209025        3.19470955
 C           -0.86845522       -0.84040571        4.08930018
 C            0.51482538        1.06431138        4.14469718
 C           -0.86901820        0.61385200        4.14694407
 C            0.89692232        2.10986908        3.31350899
 C            2.56087725        0.65758134        2.21605959
 C            2.00502050        1.92073585        2.38664639
 C            3.02069635        0.26588525        0.95496900
 C            2.91122109       -2.08574524        1.64369402
 C            3.43964562       -1.05300346        0.77282576
 C            2.14405730       -2.97201534        0.79259603
 C            0.20277424       -2.66368926        2.18035588
 C            0.75938410       -3.03222688        0.95273136
 C           -1.71796774       -1.49641141        3.20701050
 C           -1.17493031       -2.48187670        2.28211011
 C           -2.75065971       -0.75021447        2.50643596
 C           -1.82944176        1.33187920        3.44297785
 C           -2.82620996        0.62648136        2.65121817
 C           -0.11661073        2.90553069        2.63945333
 C           -1.44900480        2.53506448        2.71623706
 C            1.75643829        2.75099994        1.22652197
 C            0.42818208        3.33127453        1.36348101
 C            2.83771563        1.09976481       -0.15813550
 C            2.17408611        2.32433097       -0.02720248
 C            3.17853083        0.64208086       -1.43190789
 C            3.48908177       -1.62192751       -0.56327488
 C            2.70894997       -2.85280272       -0.53994245
 C            3.41001551       -0.77387023       -1.65631252
 C            1.91980101       -3.19106039       -1.62820570
 C           -0.05700560       -3.16584927       -0.17540112
 C            0.52235181       -3.50837133       -1.39548830
 C           -1.97729543       -2.44334454        1.07342194
 C           -2.90870378       -1.33433854        1.18526365
 C           -1.36730147       -2.67966863       -0.14920549
 C           -3.11305287       -0.51427411        0.07740860
 C           -3.13012194        1.44305719        1.49198303
 C           -2.27680178        2.61963976        1.52765898
 C           -3.38396815        0.85137465        0.25910186
 C           -0.38866090        3.41838164        0.23640235
 C           -1.75219400        3.09887690        0.32667569
 C            1.57556367        2.90922979       -1.14132861
 C            0.23887551        3.46747694       -1.00759224
 C            2.46877936        1.15391287       -2.59071646
 C            1.66489209        2.26907422       -2.44271791
 C            2.64368921       -1.17072280       -2.82836008
 C            1.99169298       -2.39753999       -2.84475826
 C            1.96376367        0.01357820       -3.33515262
 C           -0.19484166       -3.22841561       -2.62361011
 C            0.70559998       -2.50172244       -3.50806577
 C           -1.92687334       -2.11670655       -1.29790999
 C           -2.76891983       -1.00536489       -1.18789500
 C           -1.43135025       -2.47576225       -2.54849462
 C           -3.06075774       -0.25853619       -2.32627801
 C           -3.38830213        1.70063334       -0.84180245
 C           -2.48767401        2.84371673       -0.83212785
 C           -3.39067614        1.14034848       -2.17422291
 C           -0.49652574        3.15051085       -2.21759278
 C            0.33392632        2.26558690       -3.02395610
 C           -1.85888714        2.92474154       -2.13870875
 C           -2.45083908        1.90269992       -2.98242209
 C            0.61259201       -0.04802039       -3.68145754
 C            0.02104046       -1.28833949       -3.91998707
 C           -1.38170807       -1.47673606       -3.60023069
 C           -2.18634907       -0.35869441       -3.48074890
 C           -0.19910712        1.08264836       -3.53917208
 C           -1.58261460        0.95009276       -3.65379122
