   70
C70 / DATE: 7/ 1/2024 / Origin: Program Fullerene / C70 from database
 C            1.33469295       -0.14633946        4.17068090
 C            2.40750617       -0.34820028        3.21659526
 C            2.19545712       -1.63891173        2.57590286
 C            0.51083504       -1.34259623        4.16287913
 C            0.92835044       -2.16302642        3.04099305
 C           -0.87372089       -0.92674005        4.21957826
 C            0.46187553        0.99833938        4.00463717
 C           -0.90275868        0.50160457        3.92906605
 C            0.85612280        2.01401366        3.14855823
 C            2.84317509        0.71872375        2.43399783
 C            2.14602127        1.92779305        2.47400428
 C            3.61508290        0.41990954        1.31599863
 C            2.53698227       -1.77184016        1.23892841
 C            3.51980776       -0.91657895        0.75189501
 C            1.60612485       -2.31827122        0.35120856
 C           -0.02931599       -2.56071954        2.11282356
 C            0.27428517       -2.49117878        0.74915624
 C           -1.81185323       -1.73279378        3.59618632
 C           -1.35819422       -2.61539393        2.52358413
 C           -3.02797541       -1.09952641        3.13446165
 C           -1.76633271        0.97684059        2.93759356
 C           -2.95340781        0.28919187        2.71820836
 C           -0.10269701        2.53370625        2.18876443
 C           -1.27326331        1.82792547        1.94530716
 C            2.05031996        2.74828171        1.27733920
 C            0.64615287        3.07748020        1.07695083
 C            3.69294550        1.35855415        0.20802889
 C            2.83167899        2.45615122        0.16487852
 C            3.75938456       -0.82403668       -0.67543616
 C            3.96118756        0.58073204       -0.99720265
 C            1.94148269       -2.43631817       -0.99288465
 C            3.02959675       -1.63481828       -1.53279861
 C            0.88607521       -2.48392055       -1.98507633
 C           -0.75028310       -2.52917012       -0.21337042
 C           -0.43989634       -2.40021475       -1.57299454
 C           -2.41095985       -2.68603339        1.53060208
 C           -3.51080522       -1.86793646        2.00791661
 C           -2.08982680       -2.62948702        0.17848690
 C           -3.60996992        0.39195172        1.42878028
 C           -4.10850071       -0.93548422        1.07821182
 C           -1.80215949        1.78586445        0.64810525
 C           -3.05306239        1.19526942        0.43264982
 C            0.12193166        3.01138113       -0.20676962
 C           -1.07096653        2.31234797       -0.43279822
 C            2.41618755        2.95598570       -1.06612174
 C            1.00008016        3.23022837       -1.26487491
 C            3.56472864        1.07137694       -2.23341865
 C            2.93764852        2.37628341       -2.29032570
 C            2.61477792       -1.12649093       -2.82923278
 C            1.32727267       -1.72352138       -3.14449744
 C            2.87041833        0.19916582       -3.17067583
 C            0.39290595       -1.00144271       -3.87174952
 C           -1.40727972       -1.94731560       -2.47483559
 C           -1.01747449       -1.15752721       -3.55700718
 C           -3.08861119       -2.23263928       -0.71024857
 C           -4.10891686       -1.29075574       -0.25826485
 C           -2.73584462       -1.88073368       -2.07210313
 C           -3.52810005        1.04280389       -0.86673443
 C           -4.15027122       -0.21805371       -1.22683596
 C           -3.50233725       -0.69898082       -2.42788878
 C           -1.47627430        2.05682225       -1.74843171
 C           -1.65627516        0.13657904       -3.75007169
 C           -2.70449168        1.45266310       -1.98733123
 C           -2.79319409        0.41995126       -3.01205118
 C            0.64303355        2.79156528       -2.59914521
 C            1.85186521        2.31351236       -3.25176513
 C            1.84768382        0.98702292       -3.84320597
 C            0.62225206        0.40967538       -4.14791723
 C           -0.53880433        2.08960302       -2.78091159
 C           -0.59210492        1.11769673       -3.77798204
