   70
C70 / DATE: 7/ 1/2024 / Origin: Program Fullerene / C70 from database
 C            1.35062822       -0.23107906        4.46265608
 C            2.60474519       -0.51217809        3.80487427
 C            2.52761411       -1.84492235        3.22858266
 C            0.49993746       -1.40376183        4.32414022
 C            1.22483093       -2.39880207        3.55208824
 C           -0.79816308       -0.95102342        3.84818250
 C            0.58167394        0.92177309        4.02902953
 C           -0.80440897        0.49613795        3.95060566
 C            1.08548610        1.77679841        3.04422132
 C            3.04734425        0.38679000        2.76307298
 C            2.39395890        1.59711238        2.55423564
 C            2.92868691       -1.75483320        1.83056299
 C            3.40340931       -0.40655932        1.59863329
 C            2.15112308       -2.37488671        0.86037305
 C            0.54418716       -3.09987517        2.56824467
 C            1.16719721       -3.26758842        1.26564053
 C           -1.36733544       -1.56666387        2.73273074
 C           -0.85357657       -2.78746278        2.31652233
 C           -2.18015190       -0.82519036        1.86569955
 C           -1.67082353        1.21131690        3.14648514
 C           -2.49630842        0.49027026        2.19354456
 C            0.18951724        2.63446946        2.38694478
 C           -1.17966821        2.40024662        2.47339393
 C            0.64209598        3.51348114        1.41123365
 C            2.80788582        2.31440903        1.43948034
 C            2.01785735        3.43242815        0.98102055
 C            3.24684870        0.16937408        0.34278364
 C            3.24549714        1.56265343        0.27222704
 C            2.07384248       -1.82227915       -0.41900316
 C            2.63204142       -0.56166936       -0.67926199
 C            1.28885148       -2.45140320       -1.39503645
 C            0.10578809       -3.60637340        0.34200568
 C           -1.15358464       -3.26271085        0.98556467
 C            0.24679616       -3.30162015       -1.00614061
 C           -2.48774840       -1.30838813        0.58298891
 C           -2.11104829       -2.61295032        0.22228093
 C           -3.05100066       -0.43833752       -0.37160443
 C           -2.84145790        1.42059869        1.13911234
 C           -2.01087573        2.60742314        1.29904846
 C           -3.08236721        0.93812976       -0.13632646
 C           -0.17934017        3.75083778        0.23188322
 C           -1.47078192        3.22389891        0.16989846
 C            2.03629087        3.42534662       -0.47192153
 C            2.71320466        2.22186133       -0.90702456
 C            0.68458065        3.65361908       -0.93706489
 C            2.35028339        0.07426708       -1.88735797
 C            2.12194582        1.44915363       -1.89477201
 C            1.34901653       -1.99204219       -2.70975538
 C            1.92868109       -0.68694799       -2.96734780
 C            0.19889619       -2.15019091       -3.58735522
 C           -0.91849157       -3.34110198       -1.76783199
 C           -2.16928416       -2.99716235       -1.11118231
 C           -0.93988170       -2.77494803       -3.10236268
 C           -3.35707284       -0.89765951       -1.65167095
 C           -2.96794543       -2.23309270       -2.03608124
 C           -2.23918935       -2.14701449       -3.29251043
 C           -3.11544158       -0.02962085       -2.79192578
 C           -2.30949611       -0.76977169       -3.75173841
 C           -2.94545363        1.82129689       -1.20275427
 C           -2.01823424        2.93284894       -1.07917609
 C           -2.85332729        1.31256571       -2.56100997
 C            0.22789896        2.95201574       -2.04606741
 C            1.04305074        1.96859673       -2.61895969
 C           -1.14656860        2.89388512       -2.24177462
 C           -1.70639738        1.94808894       -3.19321313
 C            1.14649795       -0.04209858       -4.00526208
 C            0.06133408       -0.93445137       -4.37224916
 C           -1.18037411       -0.17982230       -4.31036801
 C            0.58300178        1.26671912       -3.72949095
 C           -0.84672833        1.19806960       -3.98439093
