   70
C70 / DATE: 7/ 1/2024 / Origin: Program Fullerene / C70 from database
 C            1.55453976        0.23590117        4.93778866
 C            0.76677268       -0.95799601        4.69189496
 C            1.48377041       -1.78092085        3.73110605
 C            2.68703732        0.20865235        4.03009787
 C            2.74011012       -1.10888753        3.43010088
 C            2.58886144        1.36055718        3.14864240
 C            0.73859232        1.38091983        4.58151562
 C            1.48972620        2.18109573        3.63162505
 C           -0.58719672       -0.54319521        4.37193145
 C           -0.57504449        0.89844090        4.18445551
 C           -1.31017854       -1.31906223        3.48550839
 C            0.76157369       -2.39300047        2.70273654
 C           -0.62753533       -2.39175973        2.77682893
 C            1.38350731       -2.65443386        1.47624965
 C            3.24565032       -1.21178354        2.14819625
 C            2.69418550       -2.22159747        1.27487198
 C            2.76666494        1.17127117        1.77335896
 C            3.37279366       -0.00210391        1.34196673
 C            2.05309333        1.95943914        0.86107759
 C            0.77279388        2.91681021        2.70891215
 C            1.27610722        2.99775430        1.35346614
 C           -1.17222176        1.46344907        3.05490090
 C           -0.65508916        2.66555384        2.58831065
 C           -2.17215467       -0.66101542        2.52125678
 C           -1.94567684        0.66950475        2.19457406
 C           -1.40218261       -2.66475194        1.58774401
 C           -2.40276352       -1.61353288        1.46043812
 C            0.63142538       -3.08007806        0.36975393
 C           -0.76880019       -3.11434105        0.43704116
 C            1.27338051       -3.21047838       -0.86628453
 C            3.11452846       -1.84700520       -0.05649252
 C            3.25101458       -0.39936101       -0.04658425
 C            2.47357807       -2.43306119       -1.12566111
 C            1.85491853        1.52721133       -0.46307579
 C            2.47384105        0.35937707       -0.91922904
 C            0.98541440        2.23007156       -1.31858752
 C            0.17138192        3.47238098        0.56169179
 C           -1.04612710        3.13940219        1.28378024
 C            0.16255396        3.24584926       -0.80032966
 C           -2.28251361        1.12880855        0.90925420
 C           -2.04042237        2.47058125        0.58361884
 C           -2.71748933       -1.16142930        0.18770782
 C           -2.62817958        0.20552422       -0.10206453
 C           -1.52183841       -3.07835798       -0.73431062
 C           -2.57109524       -2.07719089       -0.84440128
 C            0.50171757       -3.21067357       -2.09994211
 C           -0.88163403       -3.19965891       -2.02968129
 C            2.18177300       -1.60804130       -2.27651674
 C            2.05068628       -0.22700147       -2.11188994
 C            1.18418299       -2.32866103       -3.03933725
 C            0.73989417        1.74032509       -2.61551603
 C            1.23966908        0.48556754       -2.99362829
 C           -0.18833348        2.39888872       -3.43261267
 C           -1.06847155        3.45921740       -1.39767118
 C           -2.22797145        2.89502986       -0.72538220
 C           -1.20593419        3.20539179       -2.80467645
 C           -2.82517737        0.64264494       -1.42139737
 C           -2.85486985        2.00887864       -1.67610916
 C           -2.46891807        2.50803849       -2.98274958
 C           -2.61857262       -1.62564094       -2.21625974
 C           -1.64414965       -2.39953836       -2.97491194
 C           -2.77727546       -0.27221234       -2.48730997
 C            0.45258509       -1.62054290       -3.97711201
 C            0.70170574       -0.19640379       -4.09153225
 C           -0.99021111       -1.79670108       -4.04178400
 C           -0.88269940        1.67296303       -4.47578449
 C           -2.27291801        1.56246175       -4.05408431
 C           -2.51561972        0.16197869       -3.78885526
 C           -0.42935387        0.34549483       -4.80974819
 C           -1.54141158       -0.56501701       -4.58089098
