   70
C70 / DATE: 7/ 1/2024 / Origin: Program Fullerene / C70 from database
 C            1.15680174       -0.03546932        4.47587051
 C            2.40781112       -0.36528630        3.83414441
 C            2.38008656       -1.78371523        3.51211208
 C            0.32143753       -1.22729555        4.47527669
 C            1.04513026       -2.27808737        3.78671714
 C           -0.99688372       -0.84304411        3.99758843
 C            0.36842305        1.04712890        3.92743907
 C           -1.01383581        0.60612850        3.87551563
 C            0.85843743        1.80546350        2.86890774
 C            2.77965425        0.35114752        2.62687011
 C            1.93014143        1.32441759        2.10271743
 C            2.92749737       -1.93666562        2.17710354
 C            3.36120911       -0.62236900        1.72643888
 C            2.30981562       -2.78703576        1.26183859
 C            0.39026536       -3.02229162        2.81619650
 C            1.07242433       -3.35754572        1.57255342
 C           -1.63595401       -1.60815124        3.02740067
 C           -1.00170441       -2.73364396        2.49609406
 C           -2.68833991       -1.03121167        2.32472342
 C           -1.86640536        1.20430817        2.94931247
 C           -2.83077892        0.41857262        2.31975414
 C           -0.03020256        2.69915920        2.29290775
 C           -1.45376410        2.39235172        2.34671021
 C            0.25075942        3.24185240        0.98132698
 C            2.00036217        1.60980930        0.73202266
 C            1.22238191        2.64068431        0.19009993
 C            3.35629456       -0.36111483        0.36448827
 C            2.85279463        0.85928724       -0.08912450
 C            2.67480906       -2.66660174       -0.07601581
 C            3.35290499       -1.45319940       -0.49791095
 C            1.70894916       -2.98968048       -1.11152796
 C            0.05751450       -3.48662492        0.53507611
 C           -1.21711834       -3.09036119        1.10051188
 C            0.36715414       -3.12026973       -0.76716553
 C           -3.00016922       -1.50606868        0.98787230
 C           -2.09613778       -2.33838281        0.33403212
 C           -3.35455753        0.80749084        1.01634073
 C           -3.62520716       -0.40928727        0.27022933
 C           -2.03557763        2.80837292        1.08059058
 C           -1.02678783        3.59163262        0.38940037
 C           -2.82600304        1.91658539        0.36130771
 C           -1.10291675        3.70913273       -0.98546874
 C            1.19466936        2.85791231       -1.19053268
 C            0.10829711        3.52114567       -1.76259736
 C            2.92545926        1.14125374       -1.44903584
 C            2.07888391        2.17204374       -2.01498531
 C            3.07418465       -1.25571769       -1.91021152
 C            2.08338941       -2.24744117       -2.30412335
 C            2.98311224        0.04036348       -2.39763144
 C            1.09822989       -1.91158463       -3.22120329
 C           -0.61495221       -2.54262869       -1.57691855
 C           -1.84385213       -2.15245445       -1.02745940
 C           -0.28802482       -2.18061198       -2.88398821
 C           -3.54367578       -0.38214038       -1.11032666
 C           -2.73271441       -1.38377955       -1.77904722
 C           -2.84517453        1.97911710       -1.03626027
 C           -2.16375326        3.00774217       -1.68572223
 C           -3.29714397        0.88440656       -1.77528615
 C           -0.30643032        3.17460134       -3.11073413
 C           -1.71599891        2.81863571       -3.05635230
 C            1.64170580        1.71963393       -3.32977453
 C            2.06403812        0.33822652       -3.48349103
 C            1.14649787       -0.62305235       -3.89500380
 C            0.40001395        2.11749835       -3.80884446
 C           -1.10829621       -1.22151415       -3.60243044
 C           -2.31796305       -0.82547016       -3.05429052
 C           -2.69798478        0.57963153       -3.06697035
 C           -1.87402511        1.51689067       -3.67707837
 C           -0.22185290       -0.23403011       -4.20112668
 C           -0.57735474        1.11120055       -4.19885229
