   70
C70 / DATE: 7/ 1/2024 / Origin: Program Fullerene / C70 from database
 C            1.30967212       -0.11390463        4.37398791
 C            2.47716280       -0.41021683        3.58437972
 C            2.43442738       -1.82193299        3.23298645
 C            0.48830165       -1.31662413        4.42914021
 C            1.14427243       -2.34324694        3.64314790
 C           -0.86471265       -0.91972699        4.08108525
 C            0.44355454        0.97023174        3.95486872
 C           -0.90438079        0.52142544        4.23849246
 C            0.68177828        1.65220254        2.75444875
 C            2.69101676        0.33274850        2.36142017
 C            1.77470146        1.30578996        1.94603455
 C            2.83284941       -1.93811399        1.83896261
 C            3.19095852       -0.61271170        1.38103370
 C            2.11139362       -2.75737789        0.97856940
 C            0.39635766       -3.06807569        2.72685574
 C            1.00086619       -3.45424076        1.46395756
 C           -1.48284210       -1.49119875        2.96758833
 C           -0.97747630       -2.67009474        2.43719824
 C           -2.34848040       -0.71024511        2.19872702
 C           -1.93909457        1.20788211        3.64094514
 C           -2.83098945        0.45960881        2.77627819
 C           -0.36234613        2.41583499        2.21964766
 C           -1.59870280        2.38605461        2.87689869
 C           -0.27680447        2.89499915        0.90372291
 C            1.79261093        1.68230142        0.60094286
 C            0.77510521        2.48748185        0.08060500
 C            3.00804425       -0.30402543        0.04639706
 C            2.64404372        0.99585111       -0.26616579
 C            2.22774216       -2.55097311       -0.39799322
 C            2.71401845       -1.31846102       -0.86781669
 C            1.46985170       -3.36284007       -1.23570391
 C           -0.10112035       -3.74752770        0.56504291
 C           -1.23481949       -2.97557391        1.04261984
 C            0.15061264       -3.76493491       -0.79119923
 C           -2.36919279       -0.86550276        0.79974007
 C           -1.79271323       -1.99539881        0.22115649
 C           -2.86731291        0.14600081       -0.03036824
 C           -3.50573932        1.43731890        1.95236739
 C           -2.81091300        2.70375259        2.15649412
 C           -3.56971894        1.21472954        0.52614809
 C           -1.36864461        3.53416648        0.31954245
 C           -2.69374303        3.34321424        0.87323356
 C           -3.42472183        2.51867038       -0.07401667
 C           -1.54214509        3.43345163       -1.11136563
 C           -2.71296037        2.59575982       -1.32124416
 C            0.76158345        2.80124771       -1.28951877
 C           -0.44110631        3.16872145       -1.91131506
 C            2.74366342        1.38999919       -1.58508305
 C            1.84909906        2.41639361       -2.07788218
 C            2.62823417       -0.97811927       -2.22674354
 C            2.84200990        0.35177055       -2.59777489
 C            1.34347067       -3.02862632       -2.63510112
 C            1.96981380       -1.81987705       -3.12214013
 C           -0.77954621       -3.07934185       -1.66443422
 C           -1.52490490       -2.01708103       -1.15095469
 C           -0.08345889       -2.92196867       -2.91970625
 C           -2.45525868        0.21180326       -1.37240601
 C           -2.53012126        1.43646812       -2.06076165
 C           -1.74223876       -0.86537969       -1.92506809
 C           -0.73898710        2.62544960       -3.15774174
 C           -1.77259120        1.60670587       -3.20678843
 C            1.66835078        2.17455346       -3.50062099
 C            2.22280765        0.86493985       -3.80833706
 C            0.33071756        2.22340456       -4.04101654
 C            1.03759791       -1.24969693       -4.07901191
 C           -0.27973186       -1.70544996       -3.66679998
 C           -1.20473148       -0.76720804       -3.22170962
 C           -1.21331703        0.45767755       -3.87217949
 C            1.19002577        0.07549284       -4.45787389
 C           -0.00114773        0.90159346       -4.54782427
