   70
C70 / DATE: 7/ 1/2024 / Origin: Program Fullerene / C70 from database
 C            1.36122311       -0.05088210        4.55563204
 C            2.63336133       -0.37868549        3.94097348
 C            2.57885701       -1.76539638        3.51113058
 C            0.52122865       -1.23519506        4.50531939
 C            1.30372221       -2.31891007        3.93499087
 C           -0.73709430       -0.87015403        3.87042575
 C            0.59570238        1.06145890        4.02251986
 C           -0.71549795        0.56406568        3.64109261
 C            1.22327138        1.98312710        3.19679659
 C            3.09040451        0.41864006        2.81716999
 C            2.50393082        1.65313920        2.57803309
 C            2.92937758       -1.81490816        2.09889884
 C            3.31591501       -0.47472426        1.69325753
 C            2.15664244       -2.59557573        1.23904950
 C            0.66422399       -3.20752376        3.08533995
 C            1.28542009       -3.52021226        1.81009009
 C           -1.26961925       -1.71272825        2.89452350
 C           -0.74240810       -2.99771202        2.78988484
 C           -1.98037027       -1.15309702        1.82039941
 C           -1.33379188        1.06476636        2.50249118
 C           -2.19000379        0.22913827        1.79228324
 C            0.42951237        2.68032146        2.20121954
 C           -0.85308285        2.23288460        1.89868817
 C            2.46777338        2.15513476        1.21640840
 C            1.31217423        3.01993297        1.10522307
 C            3.00102867       -0.05218442        0.40806932
 C            2.75630844        1.30284904        0.15475082
 C            1.96282199       -2.16912844       -0.08481816
 C            2.60289200       -1.00586017       -0.52346932
 C            1.03370457       -2.81108039       -0.92205769
 C            0.25234679       -4.12278164        0.99964481
 C           -1.02734037       -3.79304583        1.61794853
 C            0.15645213       -3.75446372       -0.39434148
 C           -2.35677155       -1.93743024        0.71609949
 C           -1.86595136       -3.23333133        0.58281675
 C           -1.25746625       -3.61328442       -0.67559011
 C           -2.88672426       -1.32195033       -0.42165704
 C           -2.98829094        0.78680506        0.80536841
 C           -3.36427447       -0.02208354       -0.33666597
 C           -1.43833957        2.67273657        0.70907530
 C           -2.65022566        2.11037395        0.31887998
 C            0.75100534        3.19269517       -0.14833238
 C           -0.63548695        3.30753474       -0.24533515
 C            2.36155866        1.69360939       -1.12691248
 C            1.47121621        2.76464989       -1.26324628
 C            2.52030082       -0.63261527       -1.85617402
 C            2.50129170        0.78295390       -2.17015705
 C            0.71735634       -2.25064353       -2.16301342
 C            1.55312238       -1.28917451       -2.71255977
 C           -1.62420937       -2.91255429       -1.80834207
 C           -2.61737304       -1.86021280       -1.67837040
 C           -0.57540758       -2.38636654       -2.66495676
 C           -2.44121185       -0.97317344       -2.81584128
 C           -1.16422971       -1.30220633       -3.43279851
 C           -3.35299508        0.83405545       -1.51720009
 C           -3.07308346        2.19263887       -1.06739982
 C           -2.81362633        0.36282844       -2.71788580
 C           -1.18115874        3.68559919       -1.46924366
 C           -2.42103786        3.07093379       -1.91777865
 C            1.00516395        3.12221874       -2.52561070
 C           -0.29064926        3.77424901       -2.61436025
 C            1.73109627        0.95472136       -3.38861500
 C            1.00884229       -0.28988216       -3.62467255
 C           -0.36112674       -0.26910932       -3.90280469
 C            1.09590540        2.16471114       -3.61705447
 C           -2.25541952        1.26342894       -3.62281212
 C           -2.24277562        2.67803801       -3.30059576
 C           -0.98673042        3.23637453       -3.76819240
 C           -0.97747671        0.93413247       -4.24025797
 C           -0.18390338        2.14752022       -4.29537166
