   70
C70 / DATE: 7/ 1/2024 / Origin: Program Fullerene / C70 from database
 C            1.19896461       -0.05621177        4.24639775
 C            2.41364747       -0.33376291        3.52094597
 C            2.33429728       -1.70469992        3.04089488
 C            0.35960878       -1.24492967        4.17248028
 C            0.96604375       -2.14215512        3.21760830
 C           -0.99313224       -0.79532436        3.93270217
 C            0.37944775        1.06044296        3.82438361
 C           -0.98376247        0.65079935        4.08791038
 C            0.66079597        1.72510019        2.62752816
 C            2.74470546        0.49520919        2.38156744
 C            1.86258178        1.48601293        1.94242043
 C            2.89107116       -1.72744716        1.70003614
 C            3.34212992       -0.38309826        1.39596374
 C            2.22490907       -2.42853992        0.70082403
 C            0.25336669       -2.52162259        2.08740182
 C            0.96689546       -2.97745105        0.98265304
 C           -1.73072363       -1.35261214        2.88951682
 C           -1.09256487       -2.15494146        1.93127685
 C           -2.93627435       -0.73927151        2.56614079
 C           -2.00899905        1.37551402        3.50889115
 C           -3.14340714        0.63825216        2.98252160
 C           -0.36765178        2.43285063        1.99776683
 C           -1.66450958        2.38655954        2.52274447
 C           -0.15730357        2.99534615        0.73794414
 C            2.02304974        1.97011801        0.64144791
 C            1.08493141        2.86456505        0.11737190
 C            3.32414784        0.02444684        0.07331192
 C            2.94112540        1.33267592       -0.20457065
 C            2.57307069       -2.15567447       -0.62354506
 C            3.19675445       -0.94066312       -0.92668981
 C            2.00400946       -2.91088528       -1.64505661
 C            0.26915395       -3.64058522       -0.01437520
 C            0.85369182       -3.73811718       -1.33728477
 C           -1.76212543       -2.49337448        0.74509068
 C           -1.14655151       -3.35685230       -0.16379512
 C           -3.47630636       -0.87840246        1.22809365
 C           -2.87359683       -1.75111103        0.33457778
 C           -3.66641639        1.37915264        1.84883498
 C           -2.80481086        2.52275287        1.63109941
 C           -3.86829683        0.44409977        0.75861656
 C           -1.25442479        3.40564879       -0.02080108
 C           -2.57825849        2.93640729        0.33125661
 C           -1.17688344        3.35032557       -1.46657047
 C            1.23400438        3.34577439       -1.18380377
 C            0.07219015        3.37707039       -2.05351995
 C            3.18602682        1.83017134       -1.47714083
 C            2.34230901        2.88300373       -1.99550897
 C            3.30530187       -0.53977085       -2.25725565
 C            3.40469322        0.88153992       -2.55415548
 C            1.75163642       -2.29071345       -2.93434362
 C            2.40515045       -1.11218903       -3.24289151
 C           -0.18307380       -3.42865874       -2.30745924
 C           -1.42288139       -3.21810509       -1.58627877
 C            0.31929387       -2.36421022       -3.15825891
 C           -3.09117290       -1.53184700       -1.02236311
 C           -2.26547839       -2.20233206       -2.00562151
 C           -3.53877132        0.82563435       -0.54142588
 C           -3.04116664        2.10901541       -0.77902948
 C           -2.12469722        2.33212596       -1.89027655
 C           -3.31832116       -0.17388601       -1.48535004
 C           -0.41785201       -1.18538981       -3.28344046
 C           -1.76134334       -1.18706764       -2.92306192
 C           -1.68124801        1.24507646       -2.64212259
 C           -2.41193209        0.06664164       -2.59928549
 C            0.34700840        2.43512625       -3.11799419
 C            1.78733024        2.41825018       -3.25998570
 C            2.43433018        1.17451716       -3.59803904
 C            1.61873819       -0.01052772       -3.76168953
 C           -0.38244940        1.24420635       -3.16283796
 C            0.24997415        0.02799760       -3.48239325
