   70
C70 / DATE: 7/ 1/2024 / Origin: Program Fullerene / C70 from database
 C            1.47415930       -0.00908134        4.90859245
 C            0.68383553       -1.21583841        4.74704733
 C            1.57146407       -2.22942390        4.23005115
 C            2.67931012       -0.16863653        4.11126102
 C            2.79289224       -1.56755497        3.78167830
 C            2.62130323        0.79381772        3.02894286
 C            0.71733597        1.08428174        4.33393968
 C            1.54326605        1.71808299        3.32383144
 C           -0.50273205       -0.87640115        3.97749578
 C           -0.57116774        0.57144250        3.90815120
 C           -0.83067370       -1.61998671        2.84124266
 C            1.11082320       -3.03926514        3.12436166
 C           -0.15603542       -2.82227357        2.57861894
 C            2.99151351       -1.94243180        2.39367590
 C            2.23773253       -3.16459733        2.21876747
 C            2.78953386        0.38353338        1.70634174
 C            2.93486938       -0.97604787        1.38560793
 C            2.40870247        1.27126064        0.70405695
 C            0.88763260        2.30261494        2.24967930
 C            1.52450633        2.31278904        1.01117783
 C           -1.13035923        1.14941055        2.77974071
 C           -0.50228848        2.27568036        2.25514739
 C           -1.61567178       -1.01768951        1.84486309
 C           -1.88087901        0.35525081        1.91288263
 C           -2.00073001       -1.74479675        0.71438369
 C           -0.46341156       -3.53178491        1.42537245
 C           -1.43262632       -2.99726222        0.48818573
 C            1.97878062       -3.59604481        0.93151971
 C            0.64015235       -4.07977968        0.65101210
 C            2.71232086       -1.40037154        0.06760271
 C            2.35151100       -2.72901219       -0.17671229
 C            2.58774374        0.90003524       -0.62059487
 C            2.52912464       -0.45593289       -0.94756425
 C            2.37675660        1.85829798       -1.60206214
 C            0.92849812        3.03524250       -0.02638614
 C            1.46250604        2.94636709       -1.30796562
 C           -1.16211171        2.96549540        1.25534041
 C           -0.38587140        3.47018575        0.13369787
 C           -2.54441425        0.98976789        0.86086183
 C           -2.35475365        2.36202837        0.69955424
 C           -2.58115979       -1.07913881       -0.37234572
 C           -3.02197854        0.23832022       -0.21263520
 C           -2.34895029       -1.58633292       -1.65776540
 C           -0.97095687       -3.31324372       -0.85272896
 C            0.37178703       -3.83276760       -0.75021363
 C            1.44689974       -3.02011273       -1.27640764
 C           -1.24034029       -2.38813264       -1.84299329
 C            1.92416637       -0.86002052       -2.14570499
 C            1.12034340       -1.98988159       -2.14502460
 C           -0.19224117       -1.87891694       -2.61744939
 C            2.13520282        1.42648602       -2.96172268
 C            1.75894666        0.04758056       -3.18038934
 C            0.59822440        3.12977315       -2.46644101
 C            1.09726911        2.27118585       -3.52449311
 C           -1.27736718        3.52620946       -1.01648927
 C           -2.56018240        2.96913050       -0.59899329
 C           -0.77815099        3.25624549       -2.29062394
 C           -3.63615392        0.89436154       -1.28314352
 C           -3.33873112        2.29895205       -1.52340158
 C           -2.80930215       -0.90370278       -2.76783195
 C           -3.67405690        0.23478662       -2.57129723
 C           -0.49067262       -0.88281530       -3.55800216
 C            0.50495137        0.03410378       -3.91845016
 C            0.15733737        1.41907424       -4.22470577
 C           -1.83292487       -0.56529148       -3.78990607
 C           -1.64320576        2.78960822       -3.28410985
 C           -3.01010982        2.45053318       -2.92649006
 C           -3.35753458        1.21275868       -3.59727657
 C           -1.17725976        1.79258403       -4.24222379
 C           -2.17639728        0.74729179       -4.30414067
