   70
C70 / DATE: 7/ 1/2024 / Origin: Program Fullerene / C70 from database
 C            1.34344006        0.09891669        4.29538747
 C            2.58163723       -0.16992902        3.59995495
 C            2.59670030       -1.58289269        3.27015304
 C            0.51924023       -1.09915383        4.23186431
 C            1.26338192       -2.11066863        3.51040094
 C           -0.78937055       -0.71560269        3.73513435
 C            0.53399194        1.20437469        3.83638268
 C           -0.83161414        0.73274402        3.68631885
 C            1.02864553        2.06882191        2.86524598
 C            2.86870615        0.57168960        2.38375354
 C            2.02726737        1.61255042        1.99206083
 C            3.16404381       -1.72065201        1.94222924
 C            3.31457461       -0.38323001        1.38480090
 C            2.67442473       -2.72904633        1.12607939
 C            0.63156524       -2.81321716        2.48882535
 C            1.42155369       -3.37458171        1.48708920
 C           -1.34862377       -1.43073324        2.68843920
 C           -0.73069777       -2.60801673        2.24859739
 C           -2.29579067       -0.79689181        1.88396839
 C           -1.62656211        1.37043815        2.73666097
 C           -2.27540074        0.59672367        1.75978554
 C            0.13353432        3.02389667        2.40542675
 C           -1.28130892        2.68497117        2.44028077
 C            0.38381450        3.68524359        1.14302608
 C            1.97775013        1.96535570        0.63830114
 C            1.29502584        3.12344823        0.25653800
 C            2.98964814       -0.16154766        0.04996861
 C            2.47144364        1.08006049       -0.33253166
 C            2.64601274       -2.51650359       -0.30763155
 C            2.89839524       -1.24970230       -0.82271532
 C            0.80261095       -3.85497481        0.26217828
 C            1.53675288       -3.28397257       -0.85428934
 C           -1.36471446       -3.38566499        1.28440983
 C           -0.57674110       -3.93457964        0.19269653
 C           -3.01685337       -1.54970894        0.96395517
 C           -2.62276108       -2.92463570        0.72906467
 C           -3.34334666       -0.95514984       -0.31892946
 C           -2.71922538        1.18024983        0.56098977
 C           -2.98829556        0.37136428       -0.53916241
 C           -1.92451442        3.35608709        1.33553361
 C           -0.90545461        4.12014529        0.63833470
 C           -2.61349702        2.54873966        0.35727184
 C           -1.15768598        4.00090124       -0.78199827
 C           -2.22854412        3.02416943       -0.95899742
 C            1.20791325        3.46431840       -1.09156197
 C           -0.06239073        3.94401204       -1.62853371
 C            2.33516871        1.37323085       -1.69075772
 C            1.81136390        2.59842527       -2.08444514
 C            2.56313287       -1.02414517       -2.15023413
 C            2.37824657        0.33473159       -2.61626317
 C            0.85690171       -2.77808551       -1.96203681
 C            1.52596156       -1.84670707       -2.75573956
 C           -1.23883500       -3.58011410       -1.04872526
 C           -2.57970064       -3.13867898       -0.70731672
 C           -3.10449874       -1.95012929       -1.35187811
 C           -0.53729484       -2.90023323       -2.04471738
 C           -2.53389894       -1.54428583       -2.54624338
 C           -1.25953948       -2.12144460       -2.95168523
 C           -2.62962862        0.80481091       -1.82214671
 C           -2.16000794        2.11020421       -2.01221639
 C           -2.47460901       -0.12719557       -2.84698956
 C           -0.24541366        3.34001090       -2.93067632
 C            0.98763764        2.66020322       -3.28063576
 C           -1.32964756        2.39182747       -3.10016180
 C            1.41070707        0.29721195       -3.70305984
 C            0.79615460       -1.02110044       -3.70074490
 C           -0.58203631       -1.13974949       -3.78140829
 C           -1.41186418        0.05643827       -3.81696394
 C            0.63272372        1.42016216       -3.94811291
 C           -0.81970471        1.30644615       -3.92159813
