   70
C70 / DATE: 7/ 1/2024 / Origin: Program Fullerene / C70 from database
 C            1.55253537        0.08753297        4.68621562
 C            0.75789143       -1.11929484        4.57282756
 C            1.44622101       -2.03246698        3.67437814
 C            2.67723719       -0.03582835        3.77436927
 C            2.66771336       -1.37775694        3.22967127
 C            2.63392810        1.08715595        2.85402371
 C            0.73185329        1.19252063        4.22551068
 C            1.47665978        1.89137188        3.20432262
 C           -0.60211826       -0.72696055        4.24784655
 C           -0.57459069        0.67681901        3.86906309
 C           -1.35797731       -1.59943165        3.48823249
 C            0.68495747       -2.76595075        2.76468724
 C           -0.70340037       -2.76444919        2.91630769
 C            1.25067304       -3.16031869        1.54477141
 C            3.08260175       -1.55499177        1.92114008
 C            2.43203381       -2.56403156        1.10728322
 C            2.91049011        0.87917911        1.49765222
 C            3.31213023       -0.38864035        1.07498704
 C            2.38993709        1.78534895        0.56045325
 C            0.78102642        2.46486229        2.15939443
 C            1.51368519        2.76509288        1.02721051
 C           -1.13445522        1.08134729        2.65419249
 C           -0.57617444        2.16997924        1.98489484
 C           -2.21810127       -1.06033822        2.45165744
 C           -1.97825721        0.21804512        1.95294044
 C           -1.54689648       -3.22357751        1.83330307
 C           -2.47796365       -2.14286351        1.52325804
 C            0.47072510       -3.82816331        0.60129577
 C           -0.96618781       -3.93220838        0.79585126
 C            0.70433498       -3.56382435       -0.81150950
 C            2.54214633       -2.14780164       -0.28198755
 C            3.06775951       -0.79358919       -0.29614989
 C            1.52989960       -2.50285516       -1.17083276
 C            2.36938510        1.44859426       -0.80173385
 C            2.52658094        0.11572692       -1.18554008
 C            1.86317625        2.36369758       -1.73252078
 C            0.91529565        3.62238869        0.12684765
 C            1.28975059        3.54589782       -1.26568625
 C           -1.19099449        2.64433232        0.82581696
 C           -0.53190553        3.67593632        0.16317051
 C           -2.31730340        0.51004333        0.62671485
 C           -2.00956434        1.77182047        0.09208955
 C           -2.75153526       -1.83718993        0.19705706
 C           -2.84855610       -0.49861924       -0.19049445
 C           -1.59373316       -3.87771080       -0.50985197
 C           -0.54324462       -3.76682201       -1.50935794
 C           -2.54601911       -2.81624291       -0.77440389
 C           -0.96555706       -2.77408673       -2.47265987
 C           -2.33435079       -2.41429646       -2.15061082
 C            1.11508796       -1.57920614       -2.14443919
 C            1.81047753       -0.37212147       -2.27133056
 C           -0.08899011       -1.76053272       -2.84648682
 C            1.61428129        1.93090494       -3.03841107
 C            1.48447722        0.50724684       -3.29190609
 C            0.63174260        2.60983961       -3.87004267
 C            0.20119835        4.17801787       -1.99287805
 C           -0.97885235        4.08993492       -1.14418699
 C           -0.16047696        3.67834521       -3.30047090
 C           -2.40464567        2.09777601       -1.21845066
 C           -1.94353707        3.26457075       -1.82758842
 C           -1.53843987        3.21726313       -3.22397996
 C           -3.16942949       -0.21810024       -1.51247737
 C           -2.78030689       -1.16633852       -2.54480073
 C           -2.93846204        1.11158051       -2.03998810
 C           -0.61035341       -0.70034270       -3.58939841
 C            0.25165308        0.29760689       -4.02486787
 C           -0.28639080        1.60339896       -4.37531264
 C           -1.62519626        1.95313653       -3.93082189
 C           -1.97577184       -0.42340344       -3.49554753
 C           -2.41980738        0.95304101       -3.39271248
