   70
C70 / DATE: 7/ 1/2024 / Origin: Program Fullerene / C70 from database
 C            1.38322394        0.16941986        5.09087478
 C            0.60210527       -1.02462707        4.81634601
 C            1.49561023       -1.99072771        4.22919883
 C            2.60373953        0.07520808        4.30810328
 C            2.74892121       -1.30648004        3.92291580
 C            2.53500760        1.08043899        3.26323581
 C            0.63609052        1.30566575        4.58789732
 C            1.48607929        2.01009210        3.64964588
 C           -0.56882928       -0.62399013        4.06324519
 C           -0.64572915        0.82476217        4.10471341
 C           -0.89630296       -1.26725749        2.86979596
 C            1.08568300       -2.66904899        3.01376141
 C           -0.07936304       -2.28078670        2.34367603
 C            3.05214224       -1.60948339        2.54041560
 C            2.29939474       -2.80897063        2.24168544
 C            2.65359105        0.70299471        1.91946292
 C            3.07395484       -0.59212077        1.57996435
 C            2.14279241        1.55116401        0.92961448
 C            0.85869771        2.73308624        2.65243224
 C            1.39150700        2.65958033        1.30689446
 C           -1.21872769        1.47616407        3.01842330
 C           -0.58531214        2.60863810        2.51524835
 C           -1.80651624       -0.63982254        2.02877871
 C           -2.01472746        0.73846252        2.14737762
 C           -2.17750016       -1.27889221        0.85235961
 C           -0.21696560       -2.64664221        0.99389352
 C           -1.23648575       -2.08480687        0.21635559
 C            2.17723284       -3.15553865        0.91518543
 C            0.84045184       -3.29938099        0.36679959
 C            3.06102102       -0.98368352        0.23907896
 C            2.88363531       -2.33853501       -0.04456207
 C            2.11844607        1.13584454       -0.40389458
 C            2.76840804       -0.04680735       -0.75487196
 C            1.29695288        1.79965377       -1.33312259
 C            0.33701315        3.12104169        0.43055045
 C           -0.91006023        3.04615156        1.16940833
 C            0.32324299        2.69780013       -0.88613310
 C           -2.65607541        1.40216127        1.10585482
 C           -2.01058666        2.49823037        0.51895184
 C           -3.22775735       -0.74236971        0.12241575
 C           -3.54702480        0.65714769        0.34098189
 C           -3.28054413       -0.97874160       -1.30537325
 C           -1.14459959       -2.07742751       -1.18942931
 C           -2.13219449       -1.43436792       -1.94965444
 C            0.98783620       -3.19090180       -1.07135659
 C            2.34583025       -2.71978193       -1.32829975
 C           -0.05476710       -2.67410899       -1.83272096
 C            2.77710921       -0.45630564       -2.08703331
 C            2.54723541       -1.86277800       -2.39159465
 C            1.29510353        1.41400661       -2.68034826
 C            2.07294292        0.33178282       -3.08290251
 C            0.25554149        1.84159613       -3.51889452
 C           -0.87749397        2.78661996       -1.57991009
 C           -2.07972770        2.65867017       -0.86647761
 C           -0.83684886        2.61679399       -2.95626290
 C           -4.01962878        1.20124740       -0.91550213
 C           -4.04920191        0.11080196       -1.87549214
 C           -3.25211517        2.27098322       -1.51060665
 C           -2.04277007        2.28190269       -3.68548052
 C           -3.64118572        0.65213603       -3.15104902
 C           -3.25927183        2.04303501       -2.94052546
 C           -1.87283673       -1.06414954       -3.28020697
 C           -0.32303957        0.90569397       -4.47943099
 C           -2.54955721        0.01416478       -3.85428288
 C           -1.76104745        1.07830358       -4.44312055
 C            0.23058990       -2.32047873       -3.14741955
 C            1.58749368       -1.91873336       -3.47119430
 C            1.52114055       -0.59643827       -4.05278789
 C           -0.65908835       -1.42589015       -3.85746219
 C            0.15811472       -0.39137083       -4.48813926
