   70
C70 / DATE: 7/ 1/2024 / Origin: Program Fullerene / C70 from database
 C            1.05865288        0.02302552        4.56558897
 C            2.29639191       -0.21403723        3.86134780
 C            2.31422785       -1.62569276        3.53298817
 C            0.28441635       -1.21448939        4.51774734
 C            0.94394251       -2.07389311        3.56201460
 C           -1.09282325       -0.85368863        4.27858168
 C            0.18696237        1.07062638        4.08638974
 C           -1.15064747        0.59345112        4.33638045
 C            0.43823540        1.68593873        2.85594305
 C            2.53591240        0.50072170        2.62114712
 C            1.51914441        1.26667704        2.06650917
 C            3.00506314       -1.75135793        2.27995864
 C            3.25607399       -0.41496932        1.76340748
 C            2.52403048       -2.66810008        1.36730541
 C            0.33008687       -2.36755888        2.34025978
 C            1.12882268       -2.84842466        1.30058199
 C           -1.70189644       -1.24060325        3.01935735
 C           -0.91434971       -1.80319847        2.02367654
 C           -2.16433103        1.00554237        3.40592694
 C           -2.60168113       -0.16554486        2.66225902
 C           -0.60483311        2.38355772        2.24318713
 C           -1.92906035        2.14030226        2.65646449
 C           -0.37826237        2.94361651        0.98194333
 C            1.47670205        1.43845437        0.67884913
 C            0.57000065        2.34708601        0.13561919
 C            3.19717297       -0.25868008        0.37802975
 C            2.25351440        0.62869515       -0.16724382
 C            3.22613529       -2.68413690        0.18026353
 C            3.56649119       -1.37827665       -0.36675348
 C            2.71769960       -3.49792592       -0.89280127
 C            0.53191910       -3.07993404        0.05725726
 C            1.29083362       -3.71911366       -0.91717689
 C           -1.27501655       -1.61730705        0.68492040
 C           -0.59504978       -2.32489621       -0.30491406
 C           -2.94537487        0.03531757        1.32484315
 C           -2.22968167       -0.64971043        0.32798049
 C           -2.93885236        2.42929863        1.76257315
 C           -3.46934045        1.29208664        1.02386301
 C           -1.35870887        3.77931954        0.45816370
 C           -2.72684409        3.50604982        0.83097297
 C           -1.36370612        4.07871355       -0.95474391
 C            0.49361328        2.49661140       -1.25585853
 C           -0.38922373        3.42865098       -1.80490858
 C            1.96980551        0.59385215       -1.54413015
 C            1.07529915        1.52791604       -2.09346504
 C            3.28694016       -1.42180283       -1.78248137
 C            3.06326494       -2.82166675       -2.12232425
 C            2.47227483       -0.44588501       -2.34421778
 C            0.88230618       -3.65168211       -2.30083838
 C            2.02051735       -3.14989454       -3.06839141
 C           -0.92346289       -2.11527573       -1.65124232
 C           -0.26886595       -2.84488585       -2.64559432
 C           -2.34846128       -0.25779716       -1.01730431
 C           -1.68286932       -0.98888056       -2.01573723
 C           -3.60286162        1.70204701       -0.35398291
 C           -3.43303987        3.14970526       -0.37848445
 C           -2.69118839        3.74483712       -1.46732135
 C           -3.01876753        0.93069422       -1.35172953
 C           -1.09717058        3.06693617       -3.00790399
 C           -2.49798489        2.94819317       -2.65416665
 C           -2.78356897        1.52393248       -2.58691807
 C            0.52493125        1.30124279       -3.37031788
 C           -1.51062699       -0.42683183       -3.29598589
 C           -0.72994460        1.82513154       -3.63000204
 C           -1.84523932        0.90353958       -3.48036227
 C            1.87326089       -0.71641921       -3.56934674
 C            1.52739584       -2.08720185       -3.90986391
 C            0.08041742       -2.16499966       -3.86829020
 C            0.74331791        0.07395942       -3.97193178
 C           -0.40204126       -0.82096736       -4.02556712
