   70
C70 / DATE: 7/ 1/2024 / Origin: Program Fullerene / C70 from database
 C            1.58709146       -0.03604290        4.46400712
 C            0.77566922       -1.20357602        4.19705195
 C            1.47186673       -2.02096740        3.22193878
 C            2.68894533       -0.04575356        3.51617382
 C            2.54735929       -1.21223345        2.67637267
 C            2.71710051        1.24512251        2.87761861
 C            0.77326801        1.13205230        4.17668813
 C            1.55971729        1.99591222        3.34080630
 C           -0.55916756       -0.75230439        3.85645814
 C           -0.49969763        0.68589811        3.65911410
 C           -1.26002478       -1.50194557        2.93074665
 C            0.69455467       -2.74878220        2.33198113
 C           -0.69114706       -2.69440745        2.48418461
 C            1.20996953       -3.01021844        1.06332161
 C            2.62887386       -1.07295928        1.29370524
 C            2.13171839       -2.11379926        0.50913859
 C            3.02683554        1.33048212        1.52252288
 C            2.84902548        0.19220798        0.71293608
 C            2.84251362        2.58989849        0.95590328
 C            0.91740864        2.77307460        2.39452685
 C            1.78126768        3.40761540        1.52160715
 C           -0.96745974        1.22473839        2.45629544
 C           -0.32933027        2.34089937        1.89300849
 C           -2.14709258       -0.84162293        2.09042752
 C           -1.85067006        0.46449949        1.68287083
 C           -3.02088950       -1.61660572        1.34619748
 C           -1.47499179       -3.54315491        1.71331053
 C           -2.75171309       -3.04382334        1.23414481
 C            0.50725389       -3.88513470        0.23729826
 C           -0.84276591       -4.26218459        0.62034511
 C            0.50688985       -3.67546066       -1.19965502
 C            2.31931528       -2.06584323       -0.86572400
 C            1.42661176       -2.79904373       -1.74720094
 C            2.71868312        0.34069510       -0.67788438
 C            2.60356601       -0.78452975       -1.48210729
 C            2.74393808        2.72343468       -0.48104245
 C            2.44394256        1.59202162       -1.22918857
 C            1.22343569        4.20868423        0.46880874
 C            2.02175768        3.95733384       -0.71778571
 C           -0.79526659        2.85061339        0.66979838
 C           -0.15333122        3.96222257        0.11436086
 C           -2.24622191        0.91680986        0.41551104
 C           -1.68297110        2.09106454       -0.11354057
 C           -3.44552377       -1.14666334        0.04867604
 C           -3.12434077        0.14352069       -0.36028800
 C           -2.88417150       -3.42073356       -0.16274748
 C           -1.69126962       -4.13533369       -0.55395805
 C           -0.87900969       -3.59398184       -1.62921284
 C           -3.23632259       -2.22937779       -0.89891117
 C           -1.30865102       -2.46696817       -2.33604132
 C           -2.58729400       -1.92808649       -2.08975281
 C            0.99490181       -1.88456977       -2.78767351
 C            1.82741228       -0.69509009       -2.70517930
 C           -0.36019086       -1.74242203       -3.07643588
 C            1.68958873        1.69287770       -2.41179186
 C            1.28853874        0.53090784       -3.08038180
 C            1.12316335        4.02269338       -1.84172181
 C           -0.22425165        4.19125027       -1.30916429
 C            1.06916820        2.89699457       -2.75034284
 C           -1.94234606        2.46041933       -1.44768702
 C           -1.08972413        3.34869168       -2.09250630
 C           -0.29948446        2.85786188       -3.21043641
 C           -3.21684503        0.39005880       -1.72338059
 C           -2.92000538       -0.70088752       -2.64255392
 C           -2.65385872        1.59898897       -2.27029037
 C           -0.75005568       -0.63556471       -3.82118360
 C            0.11490661        0.53728439       -3.84112282
 C           -0.73925431        1.71769892       -3.85785129
 C           -2.11343851       -0.17333118       -3.71425841
 C           -2.08748033        1.26887444       -3.56885460
