   70
C70 / DATE: 7/ 1/2024 / Origin: Program Fullerene / C70 from database
 C            1.45164839       -0.15571178        5.22126858
 C            0.59667472       -1.33248207        5.22126858
 C            1.23382094       -2.34362177        4.39944224
 C            2.61018839       -0.44921449        4.39944224
 C            2.55541035       -1.85661430        4.04406447
 C            2.67483994        0.53810707        3.32632446
 C            0.72583141        0.91975983        4.57373596
 C            1.53089449        1.41771309        3.46884901
 C           -0.65044934       -0.97452811        4.57373596
 C           -0.61077163        0.44375157        4.27174107
 C            0.31480076       -2.71020819        3.32632446
 C           -0.87525286       -1.89406462        3.46884901
 C            0.83613991       -2.93396365        2.05310955
 C            3.05450013       -2.21922424        2.80805105
 C            2.22181293       -3.03628923        1.94431173
 C            3.04874669        0.11142832        2.05310955
 C            3.57426061       -1.17480470        1.94431173
 C            2.49809349        0.74159537        0.91989776
 C            0.86700065        1.83120728        2.32265644
 C            1.50116588        1.71092018        1.08585022
 C           -1.17276348        0.85206254        3.07300555
 C           -0.52443738        1.84474331        2.34659059
 C           -1.47366368       -1.39044079        2.32265644
 C           -1.91651521       -0.07128745        2.34659059
 C            0.06665423       -2.60499366        0.91989776
 C           -1.16329602       -1.95639701        1.08585022
 C            0.60759787       -2.74748270       -0.36740864
 C            2.83729765       -2.96436524        0.64402591
 C            3.69605207       -1.78239119        0.64402591
 C            1.98931407       -2.86474169       -0.51813642
 C            2.80076939        0.27115894       -0.36740864
 C            3.33926310       -1.00669624       -0.51813642
 C            2.65135953       -1.92632546       -1.39474726
 C            2.14301903        0.80820597       -1.48090697
 C            0.84523043        2.23863877       -0.02893949
 C            1.24167866        1.86457534       -1.31707371
 C           -1.18665059        2.32776866        1.22971516
 C           -0.42005071        2.79429998        0.16685586
 C           -2.58053476        0.40925170        1.22971516
 C           -2.42322978        1.76057949        0.94210167
 C           -1.86788142       -1.49563933       -0.02893949
 C           -2.78734001       -0.46399422        0.16685586
 C           -0.10642025       -2.28788159       -1.48090697
 C           -1.38961672       -1.75709205       -1.31707371
 C            1.89064887       -1.37363681       -2.39397183
 C            2.02498066       -0.01031642       -2.60773220
 C            0.63556494       -1.92268310       -2.60773220
 C            1.43607866        0.49109845       -3.75589727
 C            0.53436647        2.34465032       -2.43085368
 C            0.74115599        1.75959044       -3.68000395
 C           -1.08197269        3.38328468       -0.90124029
 C           -0.58825783        3.15337634       -2.24386728
 C           -3.17486513        2.30667454       -0.08647027
 C           -2.53305394        3.29012787       -0.93943781
 C           -3.55204289       -0.01647528       -0.90124029
 C           -3.91185426        1.39237203       -0.93943781
 C           -2.06476665       -1.23274951       -2.43085368
 C           -3.18082078       -0.41498043       -2.24386728
 C           -0.02328967       -1.51754973       -3.75589727
 C            0.58247968       -0.42319626       -4.49737030
 C           -1.44444015       -1.24862459       -3.68000395
 C           -0.35933904        1.70765840       -4.63180940
 C           -0.47474501        0.34492244       -5.11690997
 C           -1.73512151       -0.18594373       -4.63180940
 C           -1.74313988        3.01451457       -3.12805288
 C           -2.93881786        3.03159600       -2.30813658
 C           -3.79136379        1.85816719       -2.30813658
 C           -3.40563357        0.72628831       -3.12805288
 C           -1.67299206        2.12076505       -4.18788398
 C           -2.53395040        0.93575756       -4.18788398
