   70
C70 / DATE: 7/ 1/2024 / Origin: Program Fullerene / C70 from database
 C            1.51129777        0.09613624        4.61038709
 C            0.70688781       -1.11018832        4.54908012
 C            1.36939439       -2.04818938        3.66160811
 C            2.62232483       -0.06618462        3.68959168
 C            2.57367105       -1.40466788        3.15155838
 C            2.58638348        1.03097473        2.75690925
 C            0.69415780        1.19564495        4.12546381
 C            1.38251992        1.80310027        3.00850121
 C           -0.65350296       -0.72019190        4.24822864
 C           -0.64429932        0.69551632        3.90572900
 C           -1.42598392       -1.57909664        3.48171138
 C            0.60599954       -2.82785484        2.79067937
 C           -0.78464782       -2.67438394        2.76053339
 C            1.24587657       -3.38633548        1.68583690
 C            2.91726091       -1.61438443        1.81972550
 C            2.52248813       -2.82809568        1.27304084
 C            2.92190698        0.79747876        1.43352126
 C            3.14186692       -0.51192445        0.96985945
 C            2.54604079        1.76581733        0.51884261
 C            0.64246590        2.22483146        1.90656582
 C            1.31868010        2.41446089        0.70388648
 C           -1.34042557        1.11379052        2.77524279
 C           -0.73881445        2.00580684        1.87017033
 C           -2.43318973       -1.01148751        2.60406941
 C           -2.43956498        0.35959198        2.36670423
 C           -1.50231057       -2.85445024        1.50345590
 C           -2.60396255       -1.91204707        1.47652274
 C            0.48554002       -3.65023373        0.47464923
 C           -0.78377781       -3.10016871        0.34243775
 C            2.66675827       -3.05491928       -0.14515806
 C            1.40841894       -3.59284564       -0.63721312
 C            3.35615108       -0.71562759       -0.40943847
 C            3.02711499       -1.93856899       -0.98819075
 C            3.11588693        1.69996206       -0.73630964
 C            3.41956097        0.38634776       -1.26372327
 C            2.56477382        2.50083779       -1.80640889
 C            0.61926652        2.92588637       -0.38953983
 C            1.29124342        3.15328710       -1.58807802
 C           -1.45838072        2.42409114        0.74625317
 C           -0.77812516        2.93201553       -0.36808164
 C           -3.21408097        0.82533022        1.31629479
 C           -2.78245353        2.01417011        0.61384704
 C           -3.01806443       -1.37392558        0.26463952
 C           -3.63856084       -0.12756575        0.30507926
 C           -1.15633807       -2.45369016       -0.84425828
 C           -2.38789496       -1.78597487       -0.91393954
 C            1.03347660       -2.82986107       -1.80462071
 C            2.13548840       -1.95255128       -2.13929726
 C           -0.24719175       -2.32198126       -1.90431539
 C            2.76387433        0.29512307       -2.56032141
 C            2.41635241        1.63748955       -2.96780237
 C            1.86859262       -0.74618357       -2.78504619
 C            0.56576731        3.04752992       -2.83698116
 C            1.09954384        1.87560688       -3.51263238
 C           -1.48692890        3.24152303       -1.53411367
 C           -0.80691857        3.22130183       -2.82108329
 C           -3.40194842        1.97623050       -0.69888687
 C           -3.86312517        0.60865046       -0.92334890
 C           -2.81715720        2.69061874       -1.73326325
 C           -2.78422948       -1.22386795       -2.13034093
 C           -3.60516946       -0.02342149       -2.13107307
 C           -0.47625005       -1.35673446       -2.87051137
 C            0.55306162       -0.45821494       -3.19804196
 C            0.24983274        0.79958749       -3.75367061
 C           -1.79376397       -1.07032149       -3.17943862
 C           -1.59915687        2.39595872       -3.71547142
 C           -2.88739936        2.16897867       -3.08756670
 C           -3.23239768        0.77428190       -3.28532031
 C           -1.06031255        1.10593232       -4.11673523
 C           -2.10359997        0.12224871       -3.93040384
