   70
C70 / DATE: 7/ 1/2024 / Origin: Program Fullerene / C70 from database
 C            1.26935578       -0.06640870        4.24512294
 C            2.35518500       -0.19317714        3.28862477
 C            2.29060682       -1.53553065        2.73304691
 C            0.40533184       -1.22745735        4.08775794
 C            0.98373604       -2.07300515        3.07237162
 C           -0.94314159       -0.75070314        3.89378233
 C            0.43000775        1.11577366        4.21418699
 C           -0.95129473        0.66390959        4.23094479
 C            0.79357033        2.18076977        3.40091472
 C            2.67521547        0.87062982        2.45114801
 C            1.95176606        2.06382452        2.52533688
 C            3.41617407        0.60564457        1.30468534
 C            2.79598886       -1.77429886        1.45636971
 C            3.51231234       -0.76381276        0.81612193
 C            2.20517719       -2.78071644        0.69310067
 C            0.18510000       -2.55836605        2.04614338
 C            0.84878621       -3.20289272        1.01512168
 C           -1.68210391       -1.19328760        2.79646894
 C           -1.06412224       -1.96521594        1.79847435
 C           -2.87585709       -0.53590533        2.52015431
 C           -1.94337199        1.46612334        3.68630399
 C           -3.06560303        0.80876796        3.04068944
 C           -0.23062989        2.92731002        2.68519794
 C           -1.56897881        2.60830813        2.86023683
 C            1.65722977        2.80114827        1.30463590
 C            0.26180076        3.18854627        1.34301990
 C            3.26507486        1.47080078        0.14861917
 C            2.19753755        2.36301585        0.10641606
 C            3.55796478       -0.71185976       -0.64011526
 C            3.59635849        0.68766429       -1.02909530
 C            2.32273893       -2.75911590       -0.75591911
 C            2.80873955       -1.61849414       -1.38644142
 C            0.16026708       -3.47296720       -0.22519981
 C            1.15516978       -3.43586274       -1.28768955
 C           -1.66692317       -2.09416256        0.53277303
 C           -1.09754560       -2.92355169       -0.44053459
 C           -3.41919181       -0.56485497        1.17745667
 C           -2.78472067       -1.31980965        0.19877307
 C           -3.49427798        1.64945270        1.94100856
 C           -2.45238467        2.63266870        1.70798420
 C           -3.87040374        0.77968326        0.84511070
 C           -0.54712749        2.92044377        0.24124184
 C           -1.92561828        2.75369237        0.42116603
 C            1.44975006        2.47825729       -1.06544059
 C            0.05189888        2.61640097       -0.99082992
 C            3.05473058        1.05884090       -2.24669711
 C            2.05883204        2.11540979       -2.26330935
 C            2.32328805       -1.25406603       -2.64818938
 C            2.58445500        0.02236914       -3.14604533
 C            0.74628547       -3.15462097       -2.57958542
 C            1.37529699       -2.05422443       -3.29247182
 C           -1.59296764       -2.89292695       -1.74152388
 C           -0.67759746       -3.10165696       -2.85191189
 C           -3.05016215       -1.02971995       -1.14036568
 C           -2.50851640       -1.83822694       -2.12612035
 C           -3.65607101        1.23881976       -0.44424101
 C           -2.70798895        2.32643936       -0.64617411
 C           -3.40986978        0.26595704       -1.48993692
 C           -0.75168328        2.39968262       -2.12131909
 C           -2.10249841        2.14413153       -1.94879832
 C           -2.66369571        0.93775474       -2.53812116
 C            1.25224501        1.92672849       -3.44667850
 C            1.62117744        0.64772616       -4.03406864
 C           -0.18342796        1.95537239       -3.30850744
 C            0.36284887       -1.43801507       -4.14167191
 C           -0.91050492       -2.05255901       -3.83027010
 C           -1.98892688       -1.21643577       -3.33708654
 C           -1.87385234        0.17377262       -3.39497312
 C            0.40237930       -0.06899265       -4.35669887
 C           -0.72332344        0.75706075       -3.93448004
