   70
C70 / DATE: 7/ 1/2024 / Origin: Program Fullerene / C70 from database
 C            1.24629127       -0.03320815        4.19417610
 C            2.45588346       -0.26034175        3.42266992
 C            2.44645181       -1.66370333        3.03208793
 C            0.40432822       -1.21076470        4.04209934
 C            1.07130874       -2.11168427        3.12847452
 C           -0.92868536       -0.76306930        3.70809000
 C            0.43577072        1.13571835        3.91221056
 C           -0.93172824        0.69205598        3.70694212
 C            0.94984230        2.12884747        3.09915633
 C            2.89573036        0.70703665        2.51562487
 C            2.20669566        1.91334451        2.39294238
 C            3.75688578        0.32813187        1.48898846
 C            3.19601507       -2.06020361        1.93837183
 C            4.06117352       -1.08023520        1.31114423
 C            2.53967080       -2.80404755        0.87413699
 C            0.40470515       -2.51115371        1.97353004
 C            1.14686972       -2.90667632        0.85313917
 C           -1.64255755       -1.42228200        2.71460434
 C           -0.97937845       -2.32703853        1.87164038
 C           -2.80493907       -0.79962830        2.27194604
 C           -1.76173249        1.35293627        2.79935924
 C           -2.87129554        0.65147977        2.32621591
 C            0.05651132        2.84313043        2.20803422
 C           -1.27923195        2.46079590        2.08651565
 C            2.09365728        2.53491305        1.08150419
 C            0.80255381        3.18724977        1.00781338
 C            3.59129629        0.91963807        0.16740137
 C            2.59194824        1.86830415       -0.03136702
 C            4.09001450       -1.35777341       -0.11278218
 C            3.25138260       -2.51641775       -0.35938920
 C            3.79294227       -0.12368082       -0.81964089
 C            2.55527014       -2.57271523       -1.55570108
 C            0.50096025       -3.20447818       -0.35075797
 C            1.18735612       -3.06102863       -1.55488800
 C           -1.64896819       -2.87034346        0.78034761
 C           -0.88695894       -3.26208766       -0.38977585
 C           -3.45432051       -1.23782236        1.05078941
 C           -2.89259190       -2.27424986        0.32125699
 C           -3.59229738        1.11051611        1.15361848
 C           -3.96249130       -0.05789894        0.36808775
 C           -1.99138891        2.95486556        0.99371757
 C           -3.18116974        2.27091130        0.51892973
 C            0.12910609        3.23417638       -0.20321888
 C           -1.25137434        3.41562153       -0.17052384
 C            1.85415173        1.86348598       -1.22182255
 C            0.72486967        2.69079277       -1.34312903
 C            2.95164734       -0.17224818       -1.92105761
 C            2.58558310       -1.41650116       -2.43586983
 C            2.17747695        0.94307573       -2.23172988
 C            0.50540757       -2.45596672       -2.69129838
 C            1.42793422       -1.51594488       -3.30847395
 C           -1.58080063       -2.75680707       -1.56574505
 C           -2.84825207       -2.19981754       -1.13112895
 C           -0.84583401       -2.13477834       -2.57386480
 C           -3.94054931        0.00319401       -1.02068578
 C           -3.36229108       -1.09093945       -1.78627980
 C           -3.19870004        2.35090564       -0.93460577
 C           -2.05052285        3.14122916       -1.35257933
 C           -3.59306540        1.24897663       -1.68631268
 C            0.04467191        2.77714994       -2.55509411
 C           -1.40615189        2.85090853       -2.54722850
 C            1.44645195        0.91519618       -3.41440336
 C            0.92608046       -0.35896679       -3.87746606
 C            0.42602442        1.91225179       -3.64802692
 C           -1.35350098       -0.99893912       -3.21834888
 C           -2.62406130       -0.51822846       -2.89799365
 C           -2.88027174        0.91585764       -2.90889434
 C           -1.90576698        1.77851859       -3.39513359
 C           -0.51027223       -0.20756252       -3.99760271
 C           -0.76977040        1.21801755       -4.10274661
