   70
C70 / DATE: 7/ 1/2024 / Origin: Program Fullerene / C70 from database
 C            1.10511911        0.04149175        5.38274430
 C            0.41061773       -1.13978738        4.90302880
 C            1.39264883       -2.00614427        4.29769181
 C            2.45191114        0.01510185        4.83170183
 C            2.61941721       -1.23943297        4.13054525
 C            2.64836735        1.24367874        4.09616381
 C            0.42778867        1.20602385        4.83780908
 C            1.42723858        2.03229197        4.21010779
 C           -0.70673029       -0.70522807        4.08659102
 C           -0.68179436        0.74588488        4.02560923
 C           -1.02049506       -1.39618927        2.91813791
 C            1.07766682       -2.58581352        3.00983964
 C           -0.20008646       -2.43983066        2.46830247
 C            2.93452347       -1.23043359        2.70701969
 C            2.20125228       -2.33140143        2.13162691
 C            2.98969328        1.18369850        2.68180428
 C            2.99551276       -0.03246685        1.99733790
 C            1.14256891        2.55935381        2.89213412
 C            2.31096085        2.30242237        2.07701734
 C           -0.94969721        1.35351269        2.79670742
 C           -0.10984906        2.36111415        2.29985757
 C           -1.81292991       -0.74038155        1.98209744
 C           -1.74496384        0.65520814        1.89562614
 C           -2.28844834       -1.46468189        0.89508779
 C           -0.35949120       -2.86319835        1.14663225
 C           -1.56399264       -2.58786935        0.49342358
 C            1.92582411       -2.32008001        0.77816376
 C            0.80121090       -3.01997660        0.38128093
 C            2.70539318       -0.03653607        0.62348887
 C            2.31185162       -1.22570344       -0.00253995
 C            2.10223515        2.29122314        0.71690211
 C            2.49929000        1.18113347       -0.03084384
 C           -0.21298378        2.71202769        0.94427118
 C            0.98452227        2.97129170        0.27637005
 C           -2.13814860        1.28529558        0.72127938
 C           -1.32161536        2.28686895        0.19447851
 C           -3.13409775       -0.81555952        0.00141237
 C           -3.04859454        0.62997847       -0.09353731
 C           -3.33720058       -1.34493005       -1.33431908
 C           -1.77290247       -3.14383886       -0.76763455
 C           -2.64478926       -2.48200510       -1.72494831
 C            0.69017388       -3.29384450       -0.96608771
 C           -0.61504159       -3.62456245       -1.49222950
 C            1.91241849       -1.20625888       -1.34851981
 C            1.32326040       -2.35738685       -1.87803701
 C            2.18968147        1.19748067       -1.39519485
 C            1.75085230        0.01579172       -2.01365131
 C            0.95356164        3.26178227       -1.06702675
 C            1.78223727        2.42715218       -1.91268435
 C           -1.38104924        2.60362453       -1.17442597
 C           -0.32770115        3.33733595       -1.71965304
 C           -3.15639614        0.99520136       -1.48908472
 C           -3.45208083       -0.21617650       -2.24393289
 C           -2.29074760        1.94534406       -2.01928483
 C           -2.98634416       -0.33557217       -3.54649867
 C           -1.99828749       -2.52787009       -3.03140300
 C           -0.68125744       -3.10916739       -2.84321961
 C            0.48713305       -2.26743757       -3.05834413
 C           -2.10420009       -1.44082038       -3.88786014
 C            1.04496401        0.06639264       -3.23528448
 C            0.30575769       -1.03942103       -3.67383984
 C           -0.87798744       -0.84834016       -4.39040531
 C            1.22586308        2.50381727       -3.24160180
 C           -0.02491898        3.24621212       -3.13234191
 C            0.92673178        1.27274729       -3.92774956
 C           -2.16410123        2.02274148       -3.40979388
 C           -2.46301993        0.84800602       -4.20901584
 C           -1.22687766        0.46649128       -4.87903617
 C           -0.98075712        2.61041176       -4.00139640
 C           -0.27867047        1.54021247       -4.69086602
