   70
C70 / DATE: 7/ 1/2024 / Origin: Program Fullerene / C70 from database
 C            1.12897435       -0.13606108        4.89885670
 C            2.34574473       -0.37212931        4.14485161
 C            2.18678754       -1.62976101        3.43129329
 C            0.26433829       -1.28869898        4.70520932
 C            0.82704612       -2.08755633        3.62892407
 C           -1.09065489       -0.80131891        4.56684451
 C            0.34364852        1.05692718        4.62560409
 C           -1.04524627        0.65156308        4.50709230
 C            0.83393340        2.02123202        3.75298281
 C            2.78902078        0.62512376        3.18654405
 C            2.13206445        1.84454003        3.11159055
 C            2.65142632       -1.42916651        2.07593293
 C            3.13087848       -0.06464010        1.95398462
 C            1.91636703       -1.95197150        1.02382276
 C            0.04692212       -2.38206484        2.50853253
 C            0.66982611       -2.53541055        1.25830181
 C           -1.86550614       -1.25284130        3.43209142
 C           -1.34274738       -2.21628766        2.57681019
 C           -1.81173839        1.07328395        3.34151096
 C           -2.50302045       -0.09339303        2.83377284
 C           -0.06126444        2.60955526        2.76774387
 C           -1.24835649        1.96377651        2.43721432
 C            2.07979835        2.52995878        1.83384503
 C            0.76742838        3.14395253        1.70579985
 C            2.96772676        0.58360631        0.72876852
 C            2.64813570        1.94576959        0.70443309
 C            2.19314159       -1.48309769       -0.24906674
 C            2.71858681       -0.19535935       -0.40576277
 C            1.62600221       -2.13497500       -1.33311733
 C           -0.08013933       -2.97007345        0.16030292
 C            0.45715778       -2.88163252       -1.13218083
 C           -2.09795178       -2.49327931        1.44869248
 C           -1.45797350       -3.09926698        0.30402176
 C           -2.82506893       -0.16377136        1.48249808
 C           -2.95623765       -1.43493166        0.93603230
 C           -1.64738434        1.92746125        1.10146969
 C           -2.46563944        0.88736087        0.63555771
 C            0.23429340        3.28056641        0.43044486
 C           -1.06023941        2.81179248        0.19121596
 C            2.36058023        2.54400905       -0.51851754
 C            1.13854894        3.32388110       -0.62583821
 C            2.71247777        0.40875538       -1.66448839
 C            2.49488124        1.77741301       -1.74297076
 C            2.01848092       -1.73626205       -2.60594395
 C            2.44939055       -0.36552946       -2.79051338
 C            1.23962576       -2.11220579       -3.76718085
 C           -0.36862019       -3.20452859       -2.21291440
 C            0.00795753       -2.83569164       -3.56489379
 C           -2.31884369       -2.81656219       -0.82928750
 C           -3.02907587       -1.59200197       -0.50485316
 C           -1.79059668       -2.95155596       -2.09750453
 C           -2.73147810        0.78508124       -0.73224384
 C           -2.86737094       -0.47847477       -1.32389763
 C           -1.59494023        2.91384322       -1.09045610
 C           -2.54568037        1.90890770       -1.52675010
 C            0.65614761        3.22418509       -1.98982158
 C            1.51794833        2.28469549       -2.69599154
 C           -0.71054536        3.19816098       -2.21048457
 C            1.63837890        0.19969684       -3.85965135
 C            0.93277102       -0.89573358       -4.50378537
 C            0.98524960        1.41086477       -3.64322775
 C           -1.07751957       -2.03479184       -4.11392044
 C           -2.10298220       -1.93871903       -3.08825241
 C           -2.52660318       -0.67810123       -2.66876789
 C           -0.50781952       -0.81292050       -4.65573033
 C           -2.39834263        1.75105167       -2.95837671
 C           -1.21466912        2.49022446       -3.36918632
 C           -0.33725393        1.56568532       -4.06735745
 C           -2.29103365        0.41283613       -3.49974633
 C           -1.13914354        0.39500561       -4.38991197
