   70
C70 / DATE: 7/ 1/2024 / Origin: Program Fullerene / C70 from database
 C            1.57219285       -0.01938699        5.06191013
 C            0.68700973       -1.15502552        5.21839064
 C            1.21462456       -2.22022530        4.39461798
 C            2.54028308       -0.33585704        4.01843028
 C            2.27338436       -1.67464060        3.55809695
 C            2.50648943        0.73646217        3.05129427
 C            0.76925247        1.07928868        4.57172928
 C            1.53015122        1.70282229        3.51744681
 C           -0.61243603       -0.79688571        4.66455305
 C           -0.54350875        0.57395820        4.21855741
 C            0.08443587       -2.81944996        3.72336054
 C           -0.96745367       -1.81034335        3.69752156
 C            0.34906923       -3.47457899        2.54029114
 C            2.21797062       -1.93458928        2.18919529
 C            1.55575337       -3.09762051        1.81324303
 C            2.51896446        0.44382221        1.68240762
 C            2.33007674       -0.88384955        1.25611892
 C            2.19022859        1.49515292        0.80960895
 C            0.82928392        2.35175542        2.52846393
 C            1.52885082        2.59428183        1.36568178
 C           -1.03652989        0.91266864        2.96013867
 C           -0.53087137        2.06651422        2.37513751
 C           -1.49741367       -1.42669461        2.46147603
 C           -1.57717652       -0.06779644        2.11612346
 C           -0.69107732       -3.48926318        1.54497616
 C           -1.54097058       -2.38603961        1.45228602
 C            1.29442981       -3.35220427        0.41236143
 C           -0.02899816       -3.94638948        0.34729135
 C            2.08121263       -1.13141394       -0.10330462
 C            1.62991880       -2.39028183       -0.53151672
 C            2.05793254        1.23912045       -0.56189235
 C            2.14664647       -0.07605320       -1.01684458
 C            1.61697595        2.25818511       -1.42482404
 C            0.95223192        3.52661230        0.53305086
 C            1.25331303        3.48349952       -0.87273640
 C           -1.13817480        2.54924541        1.22310502
 C           -0.48881897        3.62412884        0.62922226
 C           -1.91455604        0.29238341        0.79939188
 C           -1.81059492        1.63448325        0.39633113
 C           -2.04956499       -2.05462888        0.19881524
 C           -2.17826368       -0.70169262       -0.15310045
 C           -0.72576221       -3.82565853       -0.83269323
 C           -1.93125494       -3.02108147       -0.79969568
 C            1.10193884       -2.53614846       -1.81740673
 C           -0.00211968       -3.37152111       -2.00008127
 C            2.01764773       -0.34226971       -2.37435534
 C            1.41903981       -1.59567678       -2.79043478
 C            1.28773032        1.96945977       -2.75875604
 C            1.53985122        0.69841748       -3.26480173
 C            0.44128469        2.81722615       -3.48277559
 C            0.20268583        4.26730947       -1.48775948
 C           -0.96616508        4.12388233       -0.63083330
 C           -0.21384337        3.92539860       -2.82235527
 C           -2.12498584        1.99387183       -0.92672630
 C           -1.91092966        3.31137062       -1.35326024
 C           -1.62711246        3.58462580       -2.74710984
 C           -2.49859712       -0.33807199       -1.47126717
 C           -2.43135545        1.00023190       -1.86575533
 C           -2.21927083       -2.67517733       -2.16862873
 C           -1.03034950       -2.99990495       -2.95040896
 C           -2.56337577       -1.31049058       -2.47253705
 C            0.47716077       -1.31129033       -3.86707002
 C            0.59676063        0.09600529       -4.20102328
 C           -0.78633435       -1.89066841       -3.84689150
 C           -1.95622318       -1.03264918       -3.75934017
 C           -0.57689921        2.23104994       -4.33120297
 C           -1.85785777        2.53972152       -3.70941604
 C           -2.39128140        1.28372589       -3.23827426
 C           -0.54825030        0.79911603       -4.55772712
 C           -1.84640483        0.28972222       -4.13782000
