   70
C70 / DATE: 7/ 1/2024 / Origin: Program Fullerene / C70 from database
 C            1.57029036       -0.10364172        4.64022873
 C            0.73768313       -1.27600404        4.46893064
 C            1.28936563       -2.07837152        3.38743709
 C            2.63318058       -0.17469230        3.65561400
 C            2.43106852       -1.36077877        2.85057633
 C            2.67534828        1.09879045        2.97201116
 C            0.75452226        1.05713750        4.32133619
 C            1.47168675        1.83349084        3.34058006
 C           -0.63134292       -0.81743769        4.34133205
 C           -0.56872455        0.59056433        3.97536867
 C           -1.50296603       -1.63095069        3.64362172
 C            0.39649581       -2.69196326        2.51097510
 C           -0.94269138       -2.74726063        2.89895558
 C            0.72331843       -2.79294672        1.14897304
 C            2.55664773       -1.24101145        1.47551322
 C            1.84084016       -2.10481125        0.64862346
 C            3.05625030        1.12415680        1.63400845
 C            3.13173448       -0.08696101        0.93408500
 C            2.74692776        2.28305428        0.92958901
 C            0.76515148        2.46310135        2.32258533
 C            1.53915091        2.99639168        1.30529716
 C           -1.14030119        1.01099040        2.77123856
 C           -0.54423850        2.04358573        2.02437524
 C           -2.45451537       -1.00758128        2.74827408
 C           -2.14716558        0.23371779        2.19522999
 C           -1.94763128       -3.13825730        1.93552134
 C           -2.92694782       -2.06323808        1.87792448
 C           -0.17977353       -3.39954036        0.26248061
 C           -1.53228163       -3.41909636        0.58059535
 C            0.13566206       -3.47551133       -1.08724954
 C            2.15714669       -2.15754091       -0.70918696
 C            1.40485397       -2.96042859       -1.55461639
 C            3.42298045       -0.06831733       -0.42634270
 C            2.97252833       -1.16924531       -1.25953993
 C            2.85153092        2.30656973       -0.51883254
 C            3.23732005        1.15946702       -1.18519190
 C            0.90256203        3.46170643        0.10081558
 C            1.73481203        3.08109115       -1.02834196
 C           -1.15999745        2.47309002        0.83353278
 C           -0.47042379        3.34366745       -0.03109536
 C           -2.61478763        0.55674358        0.92356890
 C           -2.31723603        1.80949256        0.39399552
 C           -3.15118982       -1.75467154        0.48366667
 C           -2.46061455       -2.74558457       -0.31382245
 C           -3.08888215       -0.44226589        0.06322783
 C           -0.87864197       -3.06949085       -2.04933337
 C           -2.00527510       -2.39407096       -1.58573540
 C            1.22490221       -2.55963332       -2.94038202
 C           -0.19923113       -2.59801650       -3.23162597
 C            2.66205277       -0.62299046       -2.57351147
 C            2.58450181        0.81895459       -2.43710199
 C            1.73659267       -1.27097076       -3.37170094
 C            1.09954171        2.71749030       -2.21355620
 C            1.42327123        1.49214952       -2.82531308
 C           -0.98016937        3.61386370       -1.29576006
 C           -0.14145406        3.30305803       -2.44673040
 C           -2.90938226        2.15370961       -0.82041825
 C           -2.32785038        3.21262394       -1.60852354
 C           -3.03824452       -0.21804273       -1.30137388
 C           -2.32099168       -1.12184524       -2.10730019
 C           -3.27432491        1.07835440       -1.72716465
 C           -0.57846377       -1.31538986       -3.77201665
 C            0.62472911       -0.51365757       -3.92071181
 C            0.52480019        0.86072481       -3.70519523
 C           -1.72956844       -0.68657160       -3.31168713
 C           -0.98855716        2.77170621       -3.48516224
 C           -2.35894400        2.80892822       -3.00441175
 C           -2.88101837        1.45605239       -3.06041110
 C           -0.71754951        1.43618889       -3.95956910
 C           -1.90807297        0.62817608       -3.73117276
