   70
C70 / DATE: 7/ 1/2024 / Origin: Program Fullerene / C70 from database
 C            1.11223108       -0.10246969        4.60579300
 C            2.33585554       -0.46365832        3.92827179
 C            2.17870014       -1.82530137        3.43734283
 C            0.25405559       -1.27573642        4.60064937
 C            0.79123891       -2.19050713        3.60923975
 C           -1.10786887       -0.81160810        4.44355281
 C            0.33085033        0.99905890        4.08157094
 C           -1.06461098        0.62374152        4.20829410
 C            0.73209093        1.64400314        2.91453466
 C            2.77620469        0.34392214        2.80711988
 C            1.99074182        1.39318873        2.34563794
 C            2.73738965       -1.86797285        2.10714828
 C            3.32841196       -0.56778325        1.83197456
 C            2.02791529       -2.48819995        1.08725496
 C            0.02377705       -2.50592599        2.48588207
 C            0.64504830       -2.68354978        1.23357687
 C           -1.91037482       -1.38854604        3.38695057
 C           -1.36913722       -2.37269717        2.56330856
 C           -1.96515149        0.91843872        3.10238524
 C           -2.65416257       -0.30879591        2.76118408
 C           -0.24108414        2.28447061        2.15032777
 C           -1.51764839        1.72812812        2.07050041
 C            0.17342955        3.14987998        1.15193339
 C            2.27145744        1.90987811        1.07975579
 C            1.51942442        2.99520209        0.63736961
 C            3.40466991       -0.16120411        0.50464958
 C            2.99697349        1.13415693        0.16133087
 C            2.55916899       -2.34739137       -0.18876358
 C            3.35534071       -1.16189887       -0.46323278
 C            1.72928770       -2.59484962       -1.34897353
 C           -0.13781122       -2.98222671        0.11102587
 C            0.36164145       -2.75829815       -1.17829398
 C           -2.14224623       -2.75556933        1.47823367
 C           -1.48607938       -3.25728315        0.29049525
 C           -3.09207242       -0.50643718        1.45493637
 C           -3.16698863       -1.82871528        1.02706725
 C           -2.14746131        1.64561823        0.83005299
 C           -2.90535458        0.50871006        0.50120503
 C           -0.70487665        3.39192199        0.02302726
 C           -1.83535269        2.59413080       -0.14369874
 C            1.50443424        3.35926739       -0.76822629
 C            0.13615281        3.70622273       -1.12165536
 C            3.08674376        1.53420200       -1.17311841
 C            2.29102613        2.64837076       -1.66003026
 C            3.17652856       -0.81397944       -1.86073825
 C            2.22502489       -1.75716272       -2.42855010
 C            3.12364162        0.52563399       -2.21966517
 C            1.34333590       -1.33985181       -3.41373430
 C           -0.50281805       -2.48933869       -2.24964797
 C           -0.04609920       -1.75417515       -3.33904652
 C           -2.40210047       -3.04943643       -0.81170570
 C           -3.42223609       -2.11279136       -0.36443728
 C           -1.87580972       -2.55426529       -2.06446942
 C           -3.30091936        0.29170389       -0.82878100
 C           -3.44628339       -1.00973694       -1.29761389
 C           -2.68637405       -1.41526339       -2.46661536
 C           -2.43026295        2.51310028       -1.39443778
 C           -3.08219157        1.27996907       -1.78115826
 C           -0.33762863        3.44751590       -2.40091237
 C           -1.71566868        3.01796740       -2.55633383
 C            1.76341526        2.29087366       -2.96869739
 C            2.23603960        0.95351698       -3.28946882
 C            1.37507358        0.03681244       -3.88360804
 C            0.47644469        2.67826416       -3.33016689
 C           -0.87253496       -0.67122105       -3.85162538
 C           -2.11702527       -0.42455039       -3.26383475
 C           -2.54948136        0.88843556       -3.07958909
 C           -1.75516409        1.99280314       -3.58580904
 C            0.01347260        0.42839593       -4.21513996
 C           -0.39635915        1.74089305       -4.02180388
