   70
C70 / DATE: 7/ 1/2024 / Origin: Program Fullerene / C70 from database
 C            1.62602403       -0.17707250        5.08693542
 C            0.78025060       -1.35071621        5.20713050
 C            1.27919941       -2.35463198        4.28548605
 C            2.63314723       -0.45789827        4.08037231
 C            2.39756857       -1.78472263        3.55106680
 C            2.63336806        0.64606584        3.14946450
 C            0.80925699        0.91602752        4.58504882
 C            1.48906256        1.49127116        3.43988827
 C           -0.55114617       -0.98513807        4.76061490
 C           -0.53626693        0.42117739        4.39193994
 C            0.14779703       -2.85792349        3.52819382
 C           -0.96824217       -1.95054380        3.75337883
 C            0.38407904       -3.30079930        2.23838782
 C            2.44820561       -1.97038906        2.16982157
 C            1.65464858       -2.96623191        1.61043048
 C            2.89250965        0.38893446        1.81713761
 C            2.89963545       -0.93164859        1.34732295
 C            2.56116015        1.38919648        0.91926558
 C            0.72550579        1.94344842        2.36030316
 C            1.34993393        2.06030896        1.11325046
 C           -1.20526788        0.78630838        3.23273848
 C           -0.66129886        1.77157443        2.40016922
 C           -1.69797809       -1.47828402        2.66186518
 C           -2.07718201       -0.13844667        2.67108618
 C           -0.64257311       -3.10471384        1.23245975
 C           -1.63050942       -2.14887746        1.43369528
 C            1.44082770       -2.98137603        0.17599174
 C            0.01786382       -3.15896582       -0.05228132
 C            2.96534130       -1.12895175       -0.03797666
 C            2.12722337       -2.08375016       -0.63517073
 C            3.09016362        1.27878643       -0.35180646
 C            3.42249527       -0.05780833       -0.80519891
 C            2.43731295        1.95854762       -1.44624444
 C            0.58583309        2.45386551        0.00885144
 C            1.12738532        2.38428242       -1.28146151
 C           -1.42420154        2.19260321        1.31007998
 C           -0.77705085        2.70645900        0.18267458
 C           -2.92957991        0.31173623        1.68244214
 C           -2.69527913        1.64136169        1.16171699
 C           -2.27241435       -1.59473218        0.32004106
 C           -3.15135740       -0.54299759        0.53424025
 C           -0.54703715       -2.49655106       -1.12813056
 C           -1.74284872       -1.78888856       -0.96353298
 C            1.62553803       -1.86234148       -1.92452080
 C            0.28508581       -2.16785282       -2.18997701
 C            3.25125872       -0.08161550       -2.24282415
 C            2.78630314        1.23704380       -2.64809057
 C            2.33567967       -1.04887001       -2.80069182
 C            1.75979859        1.04768151       -3.64868028
 C            1.63719399       -0.38440724       -3.88407814
 C            0.29553581        2.50526143       -2.39898405
 C            0.59738472        1.81193084       -3.58717627
 C           -1.54079757        3.12564412       -0.90810588
 C           -0.94156336        3.12009936       -2.23182207
 C           -3.34920000        1.69870892       -0.12652933
 C           -3.52154451        0.31958888       -0.57036413
 C           -2.90559483        2.63475490       -1.04331445
 C           -2.27446501       -1.09970318       -2.06547661
 C           -3.15179828       -0.01981947       -1.86701001
 C           -0.31152537       -1.76208358       -3.37682249
 C            0.40610119       -0.87979994       -4.28378794
 C           -1.69343917       -1.31784186       -3.31899423
 C           -0.42262973        1.45858868       -4.46963047
 C           -0.56015785        0.05919644       -4.82635706
 C           -1.88016250       -0.36249049       -4.39216254
 C           -2.00551958        2.88311129       -3.18789692
 C           -3.13430015        2.35558903       -2.44632210
 C           -3.29440640        0.96925711       -2.84360362
 C           -1.76020661        1.97819747       -4.28841350
 C           -2.64813420        0.83227590       -4.13005204
