   70
C70 / DATE: 7/ 1/2024 / Origin: Program Fullerene / C70 from database
 C            1.44241330        0.08397179        4.89078435
 C            0.63933369       -1.11569732        4.74759346
 C            1.23261755       -1.93349978        3.70413228
 C            2.54080392       -0.00589619        3.94489468
 C            2.50082906       -1.32016853        3.33758273
 C            2.48283623        1.15464999        3.07418618
 C            0.61342841        1.21014233        4.49939287
 C            1.28031331        1.89285240        3.41716803
 C           -0.73939805       -0.70164463        4.58725253
 C           -0.72880600        0.72269682        4.26901692
 C           -1.57788456       -1.52768240        3.85766213
 C            0.40073801       -2.45988656        2.71192529
 C           -0.97623033       -2.48515389        2.93431949
 C            0.89623658       -2.64706872        1.41595565
 C            2.94265175       -1.44221972        2.03278011
 C            2.21988783       -2.31944125        1.13637767
 C            2.80220318        1.00340401        1.72184079
 C            3.25712752       -0.23694010        1.27405602
 C            2.24268701        1.89242004        0.79685420
 C            0.52712010        2.39516918        2.37278175
 C            1.21638446        2.74213059        1.22603553
 C           -1.43611482        1.17960457        3.15334139
 C           -0.82954347        2.06151769        2.24686710
 C           -2.69583596       -0.91348523        3.17049661
 C           -2.56552421        0.46993288        2.75310585
 C           -1.87770647       -2.63776185        1.80921727
 C           -2.97452639       -1.70549959        1.98992319
 C            0.02274399       -2.88948486        0.34908383
 C           -1.35765393       -2.77287880        0.53163755
 C            0.52125789       -2.89512161       -0.95936048
 C            2.57487917       -1.91746370       -0.20879990
 C            3.13242405       -0.57859801       -0.13370372
 C            1.69835579       -2.19636762       -1.24018494
 C            2.43155348        1.67164065       -0.57412198
 C            2.68241899        0.38010089       -1.03606620
 C            2.01593229        2.64099300       -1.47922815
 C            0.53734892        3.51418208        0.30374259
 C            1.08992754        3.65516326       -1.02288048
 C           -1.47988923        2.36298029        1.04105334
 C           -0.89044296        3.28651018        0.18113593
 C           -3.01646891        0.55641076        1.37331341
 C           -3.27510692       -0.79238724        0.90138890
 C           -2.39541932        1.45297553        0.51407689
 C           -2.13237143       -2.32068347       -0.53223392
 C           -2.84458302       -1.13329397       -0.37359406
 C           -0.37866497       -3.12124270       -1.99987444
 C           -1.75238466       -2.69294313       -1.80980597
 C            0.00394751       -2.75664281       -3.35528457
 C            1.75778473       -1.39746778       -2.37826341
 C            2.11402526       -0.04750044       -2.24297580
 C            1.12096908       -1.85161348       -3.52376260
 C            1.59589405        2.23814516       -2.80989776
 C            1.70527097        0.90151992       -3.19189949
 C           -0.02281805        3.69338331       -1.95022446
 C           -1.20238466        3.23858041       -1.23723501
 C            0.37451315        2.96892983       -3.13614252
 C           -2.38881800        1.18355008       -0.85941000
 C           -2.65755103       -0.11694767       -1.30866749
 C           -1.91334878        2.15412303       -1.74577257
 C           -2.07710772       -1.80688314       -2.91148264
 C           -1.14968381       -2.13215761       -3.97962272
 C           -2.38527607       -0.47452371       -2.62915495
 C            0.76271467       -0.91001768       -4.56018436
 C            1.01523848        0.49667377       -4.33423184
 C           -0.66120911       -1.06873132       -4.83055335
 C           -0.61415581        2.30019111       -3.83804427
 C           -1.79754268        1.85502853       -3.10472846
 C           -2.12720428        0.52000616       -3.56859895
 C           -0.19845228        1.20758772       -4.69165885
 C           -1.27470407        0.23782855       -4.71332619
