   70
C70 / DATE: 7/ 1/2024 / Origin: Program Fullerene / C70 from database
 C            1.32059293       -0.07277931        4.48214979
 C            2.63445808       -0.28705361        3.90652974
 C            2.64507969       -1.61352191        3.31743700
 C            0.49748875       -1.22783562        4.15754759
 C            1.28553807       -2.12812505        3.34609419
 C           -0.75434092       -0.74400160        3.62493759
 C            0.57752561        1.11872298        4.11190190
 C           -0.75616215        0.70466644        3.71063019
 C            1.21017346        2.12471883        3.39558469
 C            3.12542434        0.64490351        2.90661110
 C            2.49277524        1.87018304        2.74693437
 C            3.32005030       -1.52778328        2.03481373
 C            3.48733605       -0.11696264        1.72165184
 C            2.90146723       -2.37997893        1.02834987
 C            0.74745898       -2.63889408        2.16693912
 C            1.63794872       -3.08108698        1.19782297
 C           -1.28241926       -1.32767258        2.48320538
 C           -0.56068382       -2.30821411        1.78322313
 C           -2.30809646       -0.65038076        1.83618726
 C           -1.43544597        1.41981728        2.72507844
 C           -2.38381366        0.74153115        1.95096771
 C            0.41886319        2.94499441        2.49730607
 C           -0.92040410        2.64503860        2.27724855
 C            2.43987561        2.46498884        1.42354595
 C            1.24954055        3.29608460        1.35744574
 C            3.12526038        0.36254209        0.45952708
 C            2.80019232        1.71511888        0.30884157
 C            2.92549783       -1.90447597       -0.34033631
 C            2.89654189       -0.54004487       -0.58976605
 C            1.14657552       -3.39863545       -0.12402138
 C            2.03485581       -2.76433455       -1.08772203
 C           -1.07690621       -2.80173314        0.57292008
 C           -0.21976149       -3.38068403       -0.37458399
 C           -3.00708898       -1.31157824        0.83726123
 C           -2.38186362       -2.46227730        0.21041937
 C           -3.69254169       -0.55055687       -0.19485723
 C           -3.20965299        1.46397276        1.09617032
 C           -3.73025020        0.83027541       -0.10102039
 C           -1.54569754        3.30250517        1.22377015
 C           -2.81446208        2.80617655        0.73086806
 C            0.64318007        3.51810568        0.12159474
 C           -0.74152073        3.69719121        0.07563216
 C            2.43310014        2.19705954       -0.93968385
 C            1.32057180        3.13408701       -1.03643742
 C            2.37183162       -0.09076211       -1.80214533
 C            2.33344609        1.27599846       -2.05381667
 C            1.48198931       -2.30766260       -2.27623459
 C            1.69916234       -0.97478680       -2.66037400
 C           -0.60312600       -3.44704657       -1.71398802
 C            0.33925818       -2.97321661       -2.71382300
 C           -2.77370082       -2.45840126       -1.18823474
 C           -3.35937034       -1.15788476       -1.46968285
 C           -1.93041734       -3.02708596       -2.12630227
 C           -2.82608736       -0.37414652       -2.49209202
 C           -3.27984820        1.61720498       -1.23672713
 C           -2.79265127        2.88026935       -0.72171489
 C           -1.47734420        3.32793659       -1.12532184
 C           -2.58049337        0.98320825       -2.26037658
 C            0.56543353        2.78987850       -2.23012724
 C            1.34307934        1.81123337       -2.97027864
 C           -0.81581985        2.65212851       -2.14139612
 C           -1.44917144        1.60194603       -2.81635350
 C            1.06000036       -0.46131688       -3.79319568
 C            0.68483840        0.93940794       -3.81792938
 C           -0.76639886        0.97933327       -3.85862450
 C           -0.41596250       -2.46629409       -3.83856378
 C           -1.80891466       -2.39148978       -3.43016376
 C           -2.23758768       -1.01090785       -3.57837075
 C           -0.04531560       -1.18462552       -4.39329378
 C           -1.21309035       -0.31699111       -4.32958895
