   70
C70 / DATE: 7/ 1/2024 / Origin: Program Fullerene / C70 from database
 C            1.59503331       -0.06511486        4.66819945
 C            0.75851052       -1.24721092        4.63716262
 C            1.36497600       -2.19366154        3.71606740
 C            2.59369250       -0.20764528        3.62179099
 C            2.36379234       -1.46771921        2.94747125
 C            2.56371857        0.99998231        2.82849293
 C            0.76003355        1.07019753        4.31889421
 C            1.45147042        1.80980481        3.28775540
 C           -0.61136484       -0.82163526        4.39464794
 C           -0.56952545        0.58160476        4.01733009
 C           -1.44594086       -1.67859356        3.69537763
 C            0.53086326       -3.07827994        3.05283131
 C           -0.90581666       -2.95289317        3.25099802
 C            0.75094435       -3.32759759        1.63803605
 C            2.29977855       -1.47890648        1.55428215
 C            1.61625718       -2.51020429        0.90615834
 C            2.74578185        0.91035397        1.45411451
 C            2.69229367       -0.34613293        0.82987933
 C            2.41907416        2.03758522        0.70313656
 C            0.70276567        2.44145600        2.30655872
 C            1.38951695        2.86016440        1.17323253
 C           -1.17001855        1.00082416        2.83039563
 C           -0.65377909        2.11669504        2.16399842
 C           -2.25367921       -1.14798941        2.60822050
 C           -2.03739163        0.14710995        2.14670202
 C           -1.55837828       -3.29846496        2.00364904
 C           -0.53107905       -3.67811791        1.05496867
 C           -2.44429889       -2.21001719        1.63711862
 C           -0.73318984       -3.35840808       -0.27562040
 C            1.48219587       -2.47816775       -0.48461452
 C            0.38963340       -3.13699258       -1.06105597
 C            2.72785725       -0.40937016       -0.56571705
 C            2.18666496       -1.51897113       -1.21933518
 C            2.75899139        2.03884278       -0.64188150
 C            2.98058073        0.75901119       -1.28737247
 C            2.04735987        2.89552538       -1.57526538
 C            0.71090042        3.70282309        0.30493835
 C            1.10305334        3.78527129       -1.09041882
 C           -1.33671827        2.61639989        1.05165115
 C           -0.73545495        3.66510452        0.35371158
 C           -2.42146688        0.47359954        0.84744556
 C           -2.26000640        1.78399073        0.40441539
 C           -2.52808156       -1.87460676        0.29165816
 C           -1.92020268       -2.71943424       -0.63449734
 C           -2.74683889       -0.54297703       -0.06374969
 C           -2.15323060       -2.48791190       -1.98294307
 C            0.21249573       -3.12451569       -2.43754853
 C           -1.12687390       -2.87790496       -2.93870530
 C            2.10334891       -1.51752660       -2.61147607
 C            1.13678174       -2.37807013       -3.26287085
 C            2.52284811        0.87976530       -2.66172489
 C            1.73312964        2.09592086       -2.74852990
 C            2.07842009       -0.25089929       -3.31911970
 C            0.41884910        2.04103623       -3.21642745
 C           -0.09988202        4.02471159       -1.86984968
 C           -1.22677053        4.06020386       -0.94934481
 C           -0.43725713        3.10395438       -2.94199161
 C           -2.80320794        2.13937656       -0.82627523
 C           -2.30212529        3.29899219       -1.53898080
 C           -1.85580820        2.84835839       -2.84775066
 C           -2.96992252       -0.23484811       -1.41187578
 C           -2.66291579       -1.18804394       -2.38516717
 C           -3.02577297        1.09905431       -1.80949771
 C           -2.31240420        1.48889347       -3.01775392
 C           -1.04050568       -1.84550484       -3.95636732
 C            0.35603743       -1.55470628       -4.17703431
 C            0.81135168       -0.18701126       -4.02400162
 C           -0.09333735        0.82914567       -3.70072335
 C           -1.91374767       -0.76361641       -3.55721530
 C           -1.47200871        0.55391222       -3.60858716
