   70
C70 / DATE: 7/ 1/2024 / Origin: Program Fullerene / C70 from database
 C            1.64211766       -0.05192153        4.67443961
 C            0.80899236       -1.22957867        4.53066786
 C            1.31049367       -2.01245948        3.41206503
 C            2.64427138       -0.09124309        3.62566753
 C            2.42435224       -1.27863187        2.83343806
 C            2.61582370        1.18154337        2.94513531
 C            0.80029943        1.10764384        4.43178101
 C            1.45120836        1.91495595        3.42444581
 C           -0.56955464       -0.78358328        4.48157081
 C           -0.53862300        0.63485322        4.15630552
 C           -1.46881927       -1.58687740        3.80493252
 C            0.37798863       -2.61897656        2.56640291
 C           -0.93926172       -2.68819987        3.01756592
 C            0.64606590       -2.68859876        1.18806807
 C            2.49336818       -1.17684448        1.45454666
 C            1.83522568       -2.13719586        0.70231877
 C            2.88353333        1.22156208        1.58031726
 C            2.88112669        0.02662818        0.84388751
 C            2.54092728        2.39669433        0.93073663
 C            0.67319877        2.57625984        2.47920089
 C            1.36075491        3.10637632        1.39242327
 C           -1.17654671        1.08649164        3.00064972
 C           -0.66935120        2.19924315        2.31701376
 C           -2.45648041       -0.95017203        2.95821397
 C           -2.16193572        0.29103592        2.40414614
 C           -1.98793707       -3.07110211        2.10158542
 C           -2.97279159       -1.99452537        2.10113146
 C           -0.33846376       -3.12734505        0.28460924
 C           -1.64523203       -3.33133827        0.72249630
 C           -0.11637656       -3.02321769       -1.09306489
 C            2.15466863       -2.24315273       -0.63872696
 C            1.15794989       -2.73911688       -1.56447215
 C            2.96628011        0.06976432       -0.55722741
 C            2.83599603       -1.12633990       -1.26664020
 C            2.55135610        2.44055828       -0.51181727
 C            2.86438157        1.29554531       -1.23214224
 C            0.63747759        3.58294891        0.22889578
 C            1.42496120        3.25341706       -0.94510890
 C           -1.40751756        2.72160813        1.25682398
 C           -0.73415432        3.43735656        0.18457832
 C           -2.65321050        0.62095859        1.13668763
 C           -2.45220252        1.90747328        0.66025123
 C           -3.25935140       -1.68117937        0.71644049
 C           -2.73110397       -2.78376539       -0.06327731
 C           -3.06678397       -0.38117624        0.24981427
 C           -1.20253402       -2.87987511       -1.95577187
 C           -2.51445381       -2.57463019       -1.41002859
 C           -1.05850620       -2.08875316       -3.16962733
 C            1.32298032       -2.02292067       -2.82200801
 C            2.44907901       -1.11153950       -2.66475426
 C            0.20089201       -1.63131622       -3.55349106
 C            2.59818481        1.32427254       -2.60046215
 C            2.45462293        0.08958777       -3.34994236
 C            0.80458926        2.93000441       -2.14907721
 C            1.58898520        2.25352181       -3.08389232
 C           -1.36383018        3.06860255       -1.06860921
 C           -2.44719019        2.14504703       -0.77104070
 C           -0.59910166        2.85891020       -2.21550567
 C           -2.96651439       -0.17983349       -1.13281494
 C           -2.89528826       -1.29347095       -1.97048190
 C           -2.20493320       -1.18947892       -3.23760228
 C           -2.69153227        1.09275676       -1.64703606
 C           -1.22370791        2.19924699       -3.27378361
 C           -2.04642896        0.06236353       -3.80218689
 C           -2.27208594        1.23610828       -2.97242712
 C            0.29081578       -0.54959181       -4.42871112
 C            1.45892777        0.31114283       -4.38319237
 C            0.99316098        1.68551192       -4.27298917
 C           -0.86739111        0.30825016       -4.61047147
 C           -0.44586136        1.67970686       -4.38086967
