   70
C70 / DATE: 7/ 1/2024 / Origin: Program Fullerene / C70 from database
 C            1.62903736        0.09472030        4.95593127
 C            0.85185400       -1.12892453        5.00966573
 C            1.57288601       -2.14459256        4.26459522
 C            2.71795341       -0.11629036        4.01653651
 C            2.70496246       -1.50368952        3.61440379
 C            2.60314240        0.88933318        2.98415348
 C            0.77473689        1.13975116        4.41427946
 C            1.45255717        1.72083496        3.27969349
 C           -0.50843510       -0.80944027        4.61322962
 C           -0.54176698        0.58532008        4.19650537
 C           -1.22767692       -1.73704596        3.87172240
 C            0.85714936       -2.90443800        3.25556251
 C           -0.52927457       -2.83786060        3.21309123
 C            2.63501015       -1.81051080        2.19596503
 C            1.59919759       -2.80579127        2.00728248
 C            2.80724678        0.54563841        1.65275720
 C            2.74844040       -0.79449061        1.24966172
 C            2.45301433        1.49896346        0.71272620
 C            0.69831864        2.15540471        2.19600060
 C            1.37152967        2.33698487        0.99631564
 C           -1.22430803        0.92322117        3.02860947
 C           -0.66601556        1.85563594        2.13468313
 C           -2.23883227       -1.25285493        2.94842267
 C           -2.26319916        0.09327740        2.60326855
 C           -1.19267501       -3.07647670        1.94571438
 C           -2.38284165       -2.24430113        1.89833241
 C            0.90493239       -2.81586588        0.79941282
 C           -0.43558353       -3.21311784        0.78866233
 C            2.34735829       -1.07209912       -0.06205047
 C            1.42045553       -2.09412104       -0.28671062
 C            2.72590198        1.22359113       -0.61331953
 C            2.52955349       -0.09200326       -1.03941354
 C            2.53130877        2.26394985       -1.50459052
 C            0.69117033        2.92708232       -0.06419281
 C            1.40823980        3.14190702       -1.24214185
 C           -1.37091690        2.20035048        0.97387143
 C           -0.70213093        2.80762380       -0.10040005
 C           -3.01290753        0.46406771        1.49891955
 C           -2.63690425        1.65628198        0.76992809
 C           -2.86715927       -1.84493614        0.65429109
 C           -3.37443128       -0.55250390        0.51886340
 C           -1.12238794       -3.20403389       -0.41410436
 C           -2.40770041       -2.51931393       -0.47526495
 C            0.81155968       -2.21085560       -1.53764424
 C           -0.40675167       -2.87983298       -1.62886180
 C            2.11280873       -0.34301217       -2.35129733
 C            1.21292858       -1.38970558       -2.59637904
 C            2.57070452        1.98482630       -2.91972476
 C            2.37810007        0.61400896       -3.33539922
 C            0.71475074        3.35433545       -2.49876983
 C            1.53800323        2.78755306       -3.55417027
 C           -1.39189810        3.03053056       -1.29521750
 C           -0.66280227        3.20593044       -2.54051653
 C           -3.15089701        1.50568383       -0.57939347
 C           -3.40426277        0.09037120       -0.78797478
 C           -2.56897764        2.23619722       -1.59722888
 C           -2.50608791       -1.89903482       -1.78751644
 C           -1.40192920       -2.41682559       -2.57644333
 C           -2.84952628       -0.55332501       -1.89151309
 C            0.44779259       -1.40770603       -3.76759295
 C           -0.96912432       -1.68880614       -3.66566488
 C            1.57775919        0.66534950       -4.54223296
 C            0.91888577        1.96329859       -4.57367632
 C            0.56811561       -0.34388303       -4.74267356
 C           -1.28363752        2.34486502       -3.54284671
 C           -2.33660425        1.59255058       -2.87805532
 C           -2.36668456        0.19932107       -2.96740826
 C           -1.64304228       -0.44163263       -3.97317985
 C           -0.51310829        1.72846553       -4.52326587
 C           -0.72688453        0.32209461       -4.80622240
