   70
C70 / DATE: 7/ 1/2024 / Origin: Program Fullerene / C70 from database
 C            1.22483382        0.11881379        5.24562639
 C            0.46262409       -1.02677404        4.78489455
 C            1.39004670       -1.91105795        4.12492341
 C            2.49315901        0.11464058        4.53174203
 C            2.62228437       -1.16682384        3.88528216
 C            2.53369021        1.30594067        3.70999389
 C            0.50730177        1.31409606        4.84553490
 C            1.44790928        2.16906015        4.15500252
 C           -0.67497068       -0.53882273        4.02614633
 C           -0.68900234        0.91113495        4.12891230
 C           -0.99433780       -1.12156890        2.79939456
 C            0.99676859       -2.48311501        2.85643835
 C           -0.26865157       -2.22072236        2.32135445
 C            2.87297751       -1.20489688        2.45533309
 C            2.13257690       -2.34219098        1.97100527
 C            2.81450800        1.21570066        2.34013347
 C            2.84217571       -0.03342482        1.69850811
 C            2.64243629        2.36494311        1.58101202
 C            0.93554071        3.07630805        3.24503909
 C            1.75493562        3.39571239        2.09472345
 C           -1.07185871        1.65422908        3.01528842
 C           -0.42016885        2.86150734        2.74723753
 C           -1.75104827       -0.38101632        1.89963169
 C           -1.75383892        1.01726875        1.97929701
 C           -2.22730750       -1.00217835        0.74986052
 C           -0.47005755       -2.63099509        0.99609599
 C           -1.55767310       -2.12767602        0.26518731
 C            1.85281900       -2.41858025        0.62642288
 C            0.66511341       -3.04086148        0.29808651
 C            2.57224685       -0.14039775        0.32050693
 C            2.28282174       -1.39841169       -0.22367918
 C            2.41089071        2.25780762        0.15333515
 C            2.37164368        1.00335141       -0.45630455
 C            0.86306724        3.78730967        1.02453913
 C           -0.48593301        3.42153146        1.40467971
 C            1.38732865        3.22679624       -0.19825164
 C           -2.11448509        1.76138206        0.85826989
 C           -1.28139788        2.79755640        0.44964071
 C           -3.05742412       -0.27386034       -0.08881229
 C           -2.94533851        1.17391575       -0.08306493
 C           -3.24839338       -0.69931689       -1.45887890
 C           -1.71650925       -2.52753200       -1.07400752
 C           -2.56728074       -1.81311399       -1.93520385
 C            0.53658570       -3.42962766       -1.01326886
 C           -0.77901793       -3.41725946       -1.59919501
 C            1.92539262       -1.51648716       -1.57329357
 C            1.39546060       -2.74900203       -1.95953778
 C            1.72964875        0.89246764       -1.69848627
 C            1.57036277       -0.36616446       -2.29398403
 C            0.49124565        2.85583513       -1.17935445
 C           -0.87652646        2.83975174       -0.88778848
 C            0.95082766        1.96967372       -2.13332117
 C           -2.85395971        1.60852671       -1.46604688
 C           -3.32888488        0.49995092       -2.28139880
 C           -1.74505335        2.35468156       -1.86986377
 C           -2.96543434        0.42929189       -3.61854542
 C           -2.52453211       -2.01541235       -3.31843400
 C           -2.70902104       -0.87599063       -4.20249169
 C           -0.54431423       -3.47933016       -3.02609903
 C            0.77513874       -2.89936236       -3.25435965
 C           -1.46935931       -2.81277807       -3.90620683
 C            0.89225097       -0.47206908       -3.52491372
 C           -1.51496071       -0.77026863       -5.03143160
 C            0.58446813       -1.72295905       -4.06311801
 C           -0.68582255       -1.92181313       -4.74435571
 C            0.18403046        1.85064138       -3.27376323
 C           -1.22868772        2.16378163       -3.15193970
 C           -1.94312243        1.33460402       -4.10628452
 C            0.29970368        0.66039161       -4.07876063
 C           -0.95044157        0.54325776       -4.81463407
