   70
C70 / DATE: 7/ 1/2024 / Origin: Program Fullerene / C70 from database
 C            1.25153542       -0.10259848        4.31281356
 C            2.55395126       -0.47008354        3.80515067
 C            2.48664953       -1.85464567        3.36158511
 C            0.42348439       -1.29689813        4.28383079
 C            1.10321203       -2.28399849        3.47732579
 C           -0.89875733       -0.88896294        3.87947057
 C            0.51455886        0.95354557        3.63696380
 C           -0.86961346        0.54540572        3.63247586
 C            1.04703634        1.53835505        2.49329857
 C            3.10259206        0.30561175        2.71628229
 C            2.42237187        1.42878822        2.25177540
 C            3.14555863       -1.94321212        2.06768349
 C            3.63594800       -0.61862855        1.73181401
 C            2.56526971       -2.71431131        1.07656139
 C            0.45827352       -2.79738131        2.35467341
 C            1.23684088       -3.26644524        1.29512289
 C           -1.61589196       -1.68158577        2.99082862
 C           -0.91789509       -2.58574264        2.17073093
 C           -2.81399888       -1.13311216        2.54158405
 C           -1.73039629        1.04008289        2.66412434
 C           -2.90234436        0.31595130        2.49381338
 C            0.18208494        1.95838925        1.46873322
 C           -1.20094214        1.74443854        1.56797274
 C            0.70348233        2.60628352        0.34613175
 C            2.94649100        2.02797350        1.11868065
 C            2.07658931        2.81933501        0.27721468
 C            3.67011242       -0.18717129        0.40776609
 C            3.73908565        1.19122593        0.23127802
 C            2.62946732       -2.25992124       -0.30142717
 C            3.07502309       -0.97164450       -0.59636101
 C            0.63917564       -3.47684746       -0.00948852
 C            1.45106682       -2.76498778       -0.98287035
 C           -1.53760307       -3.11723329        1.03698039
 C           -0.73805641       -3.44768395       -0.12904478
 C           -3.46418401       -1.65030200        1.35254953
 C           -2.78443835       -2.55185392        0.55392977
 C           -3.80568411        0.67478560        1.43490288
 C           -4.17013083       -0.54707240        0.72914771
 C           -2.03137844        2.08654831        0.48700279
 C           -3.35059363        1.62373128        0.44616871
 C           -0.09089758        2.77274482       -0.79726076
 C           -1.47870390        2.60670355       -0.69017628
 C            0.51095922        3.00349444       -2.05235122
 C            2.71754733        2.87372708       -1.01641657
 C            3.62967077        1.74216717       -1.09677049
 C            1.88164040        2.82550786       -2.18844271
 C            2.66648656       -0.38271413       -1.80326697
 C            3.14454199        0.87928493       -2.14760259
 C            2.35211227        1.72407015       -3.01576063
 C            0.84249009       -1.95961357       -1.93708593
 C            1.58233701       -0.92532923       -2.50764354
 C           -1.33269419       -2.78004129       -1.27358263
 C           -2.63401494       -2.28571456       -0.87307756
 C           -0.54739598       -1.98559900       -2.09850784
 C           -3.97492442       -0.28943005       -0.68552697
 C           -3.88680202        1.15411899       -0.81444087
 C           -3.09548191       -1.08841189       -1.41943320
 C           -2.28009903        2.64352035       -1.83425787
 C           -3.34160712        1.66739867       -1.96959508
 C           -0.23115062        2.84248314       -3.21580821
 C           -1.66348215        2.71763196       -3.13899850
 C            1.44290152        1.12589173       -3.87147497
 C            1.04320424       -0.24796006       -3.60047380
 C            0.23612111        1.86926397       -4.18705258
 C           -1.16550641       -1.01556405       -2.88560297
 C           -2.43431484       -0.52957688       -2.52046535
 C           -2.86010811        0.72708241       -2.95819090
 C           -2.03924986        1.50589798       -3.86053948
 C           -0.38793759       -0.35037829       -3.83227558
 C           -0.83359450        0.91121651       -4.38509400
