   70
C70 / DATE: 7/ 1/2024 / Origin: Program Fullerene / C70 from database
 C            1.48549520        0.03170095        4.90063209
 C            0.67962589       -1.16571024        4.71684639
 C            1.47953110       -2.12543212        3.99313943
 C            2.66013258       -0.09935467        4.06052115
 C            2.74868973       -1.48895131        3.67202102
 C            2.58336009        0.90654889        3.00978858
 C            0.71629458        1.15473709        4.40230334
 C            1.42921255        1.74270373        3.28294632
 C           -0.58917753       -0.75785183        4.14820844
 C           -0.63538404        0.69048282        4.16138197
 C           -1.10233354       -1.41075496        3.02805872
 C            0.95054433       -2.68556099        2.76178471
 C           -0.29724341       -2.29933758        2.29453579
 C            3.02883398       -1.77827638        2.28513363
 C            2.04227737       -2.73509662        1.81458676
 C            2.84757914        0.53912142        1.69155103
 C            3.36181313       -0.73805115        1.42762619
 C            2.26064619        1.27643887        0.65202745
 C            0.66615415        2.20458629        2.21764068
 C            1.16246775        2.10265202        0.91433168
 C           -1.35069651        1.30335777        3.14495406
 C           -0.71106731        2.29582941        2.40008894
 C           -2.18859321       -0.81371654        2.38620504
 C           -2.36158479        0.56907400        2.52730120
 C           -2.75109841       -1.47966208        1.30171172
 C           -0.59610315       -2.54657128        0.95572430
 C           -1.90640091       -2.37950727        0.54012129
 C            1.76709764       -2.73680856        0.44701422
 C            0.43789528       -2.61027265        0.00938474
 C            3.54195756       -1.10430867        0.10708948
 C            2.77920066       -2.24851752       -0.36888913
 C            2.63238511        1.01475207       -0.66754631
 C            3.43253319       -0.09372984       -0.91694769
 C            1.89961668        1.56359219       -1.72383243
 C            0.38379388        2.58245087       -0.14539963
 C            0.68324032        2.20535539       -1.45826750
 C           -1.44912035        2.97282006        1.44373720
 C           -0.85427004        3.16418294        0.13193546
 C           -3.23425973        1.25825519        1.69140841
 C           -2.83422548        2.58193505        1.25090495
 C           -3.60814609       -0.77063354        0.36934949
 C           -3.85023883        0.58193746        0.56275012
 C           -2.19158338       -2.18450112       -0.86504300
 C           -3.32205286       -1.27548948       -0.96406310
 C            0.17118777       -2.33157889       -1.34727856
 C           -1.14149279       -2.07216196       -1.76954526
 C            2.51913388       -2.03210841       -1.77201249
 C            3.24452352       -0.82721706       -2.14884916
 C            1.23089361       -2.21755497       -2.25905244
 C            2.22372995        1.18479965       -3.02929785
 C            2.80279389       -0.13091950       -3.25507642
 C            1.27313234        1.42067989       -4.09574284
 C           -0.30629874        2.31452676       -2.45148788
 C           -0.05558771        1.86880117       -3.74537754
 C           -1.91645618        3.07241695       -0.85239408
 C           -3.13947290        2.70069126       -0.16022862
 C           -3.83444380        1.49462504       -0.57213205
 C           -1.63632469        2.48133180       -2.07418807
 C           -3.40438694       -0.42428036       -2.05559937
 C           -3.59033109        1.00502887       -1.84753391
 C           -2.60986433        1.68563347       -2.67767705
 C           -1.38114280       -1.46815194       -3.00705542
 C           -1.01022728        0.95738881       -4.36051821
 C           -2.45213735       -0.58224832       -3.14265429
 C           -2.20829277        0.74034973       -3.70040574
 C            0.98171605       -1.79086201       -3.56115191
 C            1.90225775       -0.82830499       -4.14817955
 C            1.13185180        0.18083277       -4.84325478
 C           -0.36077526       -1.40527793       -3.94676788
 C           -0.26078442       -0.21085784       -4.77129582
