   70
C70 / DATE: 7/ 1/2024 / Origin: Program Fullerene / C70 from database
 C            1.64755230       -0.24250075        4.85254880
 C            0.80089137       -1.41958091        4.92171896
 C            1.24623454       -2.34680819        3.89865183
 C            2.61435800       -0.45063757        3.78825396
 C            2.36956088       -1.74767041        3.19818159
 C            2.56505200        0.70250525        2.91756108
 C            0.81490469        0.88357456        4.46596164
 C            1.44709844        1.53149237        3.33864955
 C           -0.54866487       -1.01599504        4.57455615
 C           -0.54019076        0.40974734        4.29396466
 C            0.08625256       -2.73805542        3.11198643
 C           -1.03031590       -1.91012432        3.53242927
 C            0.26800218       -2.95186004        1.75058276
 C            2.39051109       -1.85877269        1.81340546
 C            1.55354976       -2.80498387        1.23542336
 C            2.74577481        0.51876652        1.55132507
 C            2.81110011       -0.77527130        1.02748960
 C            2.31369679        1.53270040        0.71521826
 C            0.64474525        2.07682013        2.34268092
 C            1.24008927        2.32893078        1.11962059
 C           -1.25793701        0.84640658        3.18736959
 C           -0.73479415        1.85395846        2.36292301
 C           -1.85691387       -1.37616302        2.55074635
 C           -2.19201645       -0.02774067        2.64589989
 C           -0.81730406       -2.78303411        0.88726929
 C           -1.89540256       -1.98352533        1.29325175
 C           -0.64854432       -3.10764230       -0.46189346
 C            1.76962638       -3.12240908       -0.09033482
 C            0.62307719       -3.45317008       -0.91373792
 C            2.84213691       -0.94333883       -0.36741539
 C            2.60337297       -2.22507186       -0.86545465
 C            2.61435410        1.45115471       -0.63432963
 C            2.71672458        0.17741252       -1.21615354
 C            2.31455971        2.56392699       -1.41048409
 C            0.51290952        3.00956256        0.15715480
 C            1.19749716        3.39229767       -0.98979231
 C           -1.50887690        2.28282203        1.27117300
 C           -0.88142389        2.84546018        0.13894101
 C           -3.10001047        0.48819850        1.74346819
 C           -2.81066398        1.78914662        1.17340278
 C           -2.81140734       -1.50378491        0.35261054
 C           -3.54744307       -0.36086315        0.65682390
 C           -1.63238928       -2.76811676       -1.38660560
 C           -2.74618987       -1.94221416       -0.96715117
 C           -1.25736557       -2.35003415       -2.73303251
 C            0.99793552       -3.16997421       -2.28674035
 C            2.23528087       -2.40377278       -2.25052909
 C            0.05865810       -2.46940022       -3.14216518
 C            2.48157770        0.00325228       -2.59785020
 C            2.05199508       -1.23103521       -3.06478826
 C            0.73787823       -1.30527547       -3.68185800
 C            2.25180318        2.42379770       -2.84258536
 C            2.11009880        1.09347198       -3.37728622
 C            0.44845257        3.76091520       -2.16348970
 C            1.13649388        3.22067959       -3.32305125
 C           -1.60637818        3.03426410       -1.05837112
 C           -0.92996099        3.34749416       -2.23243468
 C           -3.51687378        1.86108526       -0.08435360
 C           -3.97896138        0.52009817       -0.41250433
 C           -2.81792416        2.37968889       -1.23082087
 C           -3.04763596       -1.02265668       -2.05884850
 C           -1.97547531       -1.12537625       -3.03029977
 C           -3.57443174        0.22430764       -1.77398648
 C           -2.91805243        1.40537265       -2.30499919
 C            0.04758354       -0.11113482       -3.88846519
 C            0.83196521        1.02417823       -4.07339859
 C            0.21679758        2.32668285       -4.00520447
 C           -1.06753488        2.43253275       -3.35802304
 C           -1.27171672        0.01885135       -3.41428049
 C           -1.83735294        1.28643759       -3.17852500
