   70
C70 / DATE: 7/ 1/2024 / Origin: Program Fullerene / C70 from database
 C            1.26353145        0.09701948        4.44270118
 C            2.50551282       -0.24057226        3.78833153
 C            2.47275037       -1.66243601        3.48712926
 C            0.43853553       -1.10066297        4.48645360
 C            1.11983971       -2.13314700        3.72629554
 C           -0.91288585       -0.72768229        4.10959345
 C            0.45815082        1.15813409        3.88047659
 C           -0.92048508        0.69877309        3.83329954
 C            0.93850810        1.92537776        2.82119874
 C            2.85903885        0.45766351        2.56701673
 C            2.05376831        1.49349345        2.08397816
 C            3.05089690       -1.84956268        2.17063211
 C            3.34909219       -0.53480661        1.62819073
 C            2.49337869       -2.80069009        1.33378949
 C            0.43996915       -2.79471356        2.70379355
 C            1.16179688       -3.31552752        1.63012295
 C           -1.63053233       -1.57263453        3.28241601
 C           -0.94447068       -2.65761036        2.59288007
 C           -2.59022410       -1.00133396        2.35850768
 C           -1.75624167        1.22021388        2.84511276
 C           -2.65105140        0.37865551        2.16905489
 C            0.02649876        2.78530112        2.22494637
 C           -1.38491628        2.43754240        2.27442400
 C            0.30237813        3.33527660        0.91543965
 C            2.18516433        1.85750366        0.73588276
 C            1.42804563        2.91949845        0.22249723
 C            3.16752248       -0.28962683        0.27329109
 C            2.90639540        1.01455568       -0.12309296
 C            2.56920743       -2.59932087       -0.10095109
 C            2.87661216       -1.33826937       -0.60775152
 C            0.49298239       -3.55192640        0.35918414
 C            1.47707534       -3.34745235       -0.69037306
 C           -1.58882079       -2.83799823        1.29866184
 C           -2.66929615       -1.87743459        1.20018137
 C           -0.81458584       -3.10545136        0.17885425
 C           -2.98113813       -1.32373332       -0.03426244
 C           -3.33849327        0.84653138        1.05012545
 C           -3.59257657       -0.07290944       -0.04809186
 C           -2.00218235        2.89370654        1.04271572
 C           -0.95821750        3.44617806        0.19715187
 C           -3.00601998        2.13774090        0.47161591
 C           -0.96799039        3.21837847       -1.17867423
 C            1.48539307        3.22581799       -1.13335221
 C            0.23625753        3.37042586       -1.86725054
 C            3.01740599        1.30913790       -1.47165824
 C            2.41933242        2.52050295       -1.98008371
 C            2.55557750       -1.04662259       -1.93953266
 C            2.76494329        0.24313826       -2.42275949
 C            1.03935202       -2.99164019       -1.95278503
 C            1.70087076       -1.89565593       -2.64312072
 C           -1.22196401       -2.63559321       -1.07287830
 C           -2.33226990       -1.78599895       -1.18328442
 C           -0.38469627       -2.82905267       -2.17038559
 C           -2.66112721       -1.22666139       -2.42081390
 C           -3.62777256        0.70157794       -1.27412340
 C           -3.06050138        2.00826145       -0.97383200
 C           -2.02610958        2.51133275       -1.76567076
 C           -3.29583845        0.08137331       -2.46755296
 C           -1.92435174        2.07572915       -3.08634766
 C           -2.62227036        0.86501620       -3.48583873
 C            0.41471095        2.77202246       -3.18002319
 C            1.74663688        2.19972238       -3.22726757
 C            1.88719835        0.77255309       -3.45696687
 C           -0.63115783        2.06166445       -3.74344044
 C            0.73772561       -1.33036578       -3.57757773
 C           -0.53770910       -2.00067309       -3.34975557
 C           -1.71856752       -1.30174202       -3.52566168
 C           -1.66673412        0.00116435       -4.15858871
 C            0.77571021        0.03522388       -3.85657676
 C           -0.39656800        0.70330007       -4.21562021
