   70
C70 / DATE: 7/ 1/2024 / Origin: Program Fullerene / C70 from database
 C            1.39512640        0.13378474        4.98969070
 C            0.63158593       -1.08679254        4.83148472
 C            1.50845588       -2.07592434        4.24544986
 C            2.64285464       -0.03433596        4.26031179
 C            2.70234172       -1.39413378        3.77372909
 C            2.71942928        1.03082043        3.28995614
 C            0.64995542        1.20735683        4.35105770
 C            1.54962047        1.87914522        3.45167567
 C           -0.59349734       -0.75855880        4.12368380
 C           -0.55989407        0.65677946        3.78860166
 C           -1.08081890       -1.63738290        3.16421832
 C            0.99331272       -2.84775632        3.13945415
 C           -0.36528486       -2.80997875        2.86124582
 C            2.80381293       -1.61799627        2.33672635
 C            1.90235953       -2.70333070        2.01439309
 C            3.12271518        0.74918335        1.98759933
 C            2.88358464       -0.53232771        1.46905499
 C            3.05932788        1.82202667        1.11673289
 C            1.04044273        2.45177004        2.29500304
 C            1.99933475        2.78805827        1.35476857
 C           -0.94242340        1.04848101        2.50323579
 C           -0.22554053        2.04960300        1.82610997
 C           -1.95631085       -1.11764761        2.21197460
 C           -1.78372667        0.20349433        1.77969717
 C           -2.66564477       -2.01118594        1.42787424
 C           -0.74779105       -3.52861571        1.73849538
 C           -2.07093994       -3.30830693        1.20091723
 C            1.35491743       -2.79130144        0.73616111
 C            0.18230359       -3.53369879        0.61671629
 C            2.41367063       -0.67907596        0.15346094
 C            1.60007605       -1.76800062       -0.19069793
 C            3.07434552        1.57638751       -0.30614104
 C            2.62920893        0.34538683       -0.77313629
 C            1.57480586        3.28056859        0.07307031
 C            2.53492401        2.78166059       -0.89701713
 C           -0.61075080        2.39890034        0.51883116
 C            0.22527159        3.22945904       -0.24271966
 C           -2.25101169        0.60355624        0.52455796
 C           -1.66416899        1.71157613       -0.10696636
 C           -3.22462686       -1.56352628        0.17249433
 C           -3.15184621       -0.21652704       -0.16902685
 C           -1.99034224       -3.50786890       -0.23163196
 C           -0.59473852       -3.45451163       -0.60206533
 C           -2.87338724       -2.54331959       -0.84651467
 C            0.90646792       -1.75200613       -1.40808804
 C           -0.23232791       -2.54673119       -1.58338589
 C            2.04376890        0.28308232       -2.04273701
 C            1.22707899       -0.79982923       -2.37887170
 C            2.14064586        2.73609120       -2.21790513
 C            2.04667963        1.42912919       -2.84686360
 C           -0.11665060        3.54186265       -1.55177164
 C            0.92514825        3.44633579       -2.56346931
 C           -2.09585888        2.10636903       -1.38050763
 C           -1.32983155        2.99967963       -2.12284768
 C           -3.48559125        0.09758992       -1.48066442
 C           -3.05473091        1.35439816       -2.04653318
 C           -2.53918624       -2.04514957       -2.09687295
 C           -1.20007056       -2.15672444       -2.51076996
 C           -3.26161415       -0.92653195       -2.48691141
 C            0.51214814       -0.79002082       -3.58055343
 C           -0.76640725       -1.47805829       -3.64416763
 C            1.09561619        1.55718143       -3.93757100
 C            0.36294728        2.79626651       -3.72766388
 C           -1.07281578        2.73237253       -3.53526513
 C            0.39131282        0.43888534       -4.34917677
 C           -2.92381927        1.15473369       -3.48251719
 C           -2.94124575       -0.27601060       -3.73531814
 C           -1.69619536       -0.63372033       -4.37541099
 C           -1.76801294        1.70854255       -4.15930772
 C           -1.00849436        0.59636852       -4.71736551
