   70
C70 / DATE: 7/ 1/2024 / Origin: Program Fullerene / C70 from database
 C            1.65863219       -0.02761230        4.47516213
 C            0.83140102       -1.21418519        4.36922898
 C            1.38818385       -2.06406375        3.32972549
 C            2.66067661       -0.09606838        3.42817206
 C            2.49051016       -1.34459198        2.71636770
 C            2.58752662        1.13012476        2.66678389
 C            0.81574502        1.12243833        4.19859559
 C            1.44231766        1.88942269        3.13675353
 C           -0.54831895       -0.78588172        4.23951246
 C           -0.53707767        0.64660064        3.98529123
 C           -1.40445223       -1.58692088        3.50235242
 C            0.51241139       -2.76409057        2.50446824
 C           -0.85171103       -2.73278891        2.79978016
 C            0.91567875       -3.08075298        1.20460118
 C            2.58087581       -1.33930417        1.33043572
 C            1.97764739       -2.37583019        0.62558924
 C            2.79442683        1.07786119        1.29823402
 C            2.93071196       -0.16043427        0.65576566
 C            2.36562296        2.16285521        0.55175107
 C            0.62750201        2.49474741        2.18085403
 C            1.18754071        2.81545035        0.93926261
 C           -1.24277490        1.16036533        2.90131392
 C           -0.75340840        2.30319773        2.26500445
 C           -2.35129663       -0.96213075        2.59555805
 C           -2.18996659        0.36947886        2.24294617
 C           -1.81112151       -3.09181547        1.77248070
 C           -2.65916250       -1.92470593        1.55331262
 C            0.06039915       -3.83814573        0.40278423
 C           -1.36772363       -3.81238411        0.67614994
 C            0.23858949       -3.86002748       -1.04037506
 C            2.24611297       -2.49767369       -0.73051109
 C            1.29677695       -3.16501025       -1.60207901
 C            3.08255513       -0.18565676       -0.73949544
 C            2.77755547       -1.35007120       -1.44251541
 C            2.82386152        2.25326709       -0.74953505
 C            3.13311957        1.01828313       -1.44496126
 C            2.16393671        3.14594016       -1.67409260
 C            0.40407919        3.49303398       -0.00400694
 C            0.87864431        3.69297894       -1.29970530
 C           -1.56944882        2.93367132        1.33674032
 C           -0.95357386        3.66755392        0.24741344
 C           -2.71536237        0.81027319        1.03194591
 C           -2.67026000        2.17379642        0.77525348
 C           -2.89246451       -1.47563966        0.25196630
 C           -2.87153938       -0.10238797       -0.02339652
 C           -2.05205339       -3.62148000       -0.58631127
 C           -1.07071981       -3.74677385       -1.65010162
 C           -2.78470922       -2.38452562       -0.79665060
 C           -1.31028278       -2.67650467       -2.59920469
 C           -2.44823497       -1.90435078       -2.12122323
 C            1.06684636       -2.29948111       -2.75265399
 C            2.07525025       -1.25078338       -2.71453068
 C           -0.23227348       -1.99997873       -3.16656596
 C            2.51991289        1.09505750       -2.76268771
 C            2.00508762        2.44252867       -2.93628875
 C            1.78954060        0.00727983       -3.23234331
 C           -0.01979365        3.51208925       -2.43155244
 C            0.63637500        2.62300349       -3.37819930
 C           -1.88881984        3.65094092       -0.86438842
 C           -2.90658305        2.65573065       -0.56679470
 C           -1.38457197        3.38969949       -2.20018804
 C           -2.84662081        0.33769871       -1.35782267
 C           -2.47620678       -0.54182122       -2.37668398
 C           -2.92117539        1.69753964       -1.64850182
 C           -2.10425504        2.23740178       -2.72295997
 C           -0.48344976       -0.77564826       -3.77776716
 C            0.57648826        0.21427030       -3.88927045
 C           -0.05173960        1.53085329       -3.88895082
 C           -1.70776913       -0.07026576       -3.43729085
 C           -1.46362068        1.35435351       -3.58195084
