   70
C70 / DATE: 7/ 1/2024 / Origin: Program Fullerene / C70 from database
 C            1.28410350       -0.19786682        4.36173650
 C            2.55985088       -0.54307280        3.77952173
 C            2.48184625       -1.91894005        3.31249394
 C            0.43331215       -1.37581668        4.31717673
 C            1.15462088       -2.42379174        3.62129253
 C           -0.86930074       -0.96586278        3.81756930
 C            0.53904702        0.90317760        3.78815929
 C           -0.83345779        0.47383680        3.60617935
 C            1.10773977        1.69997008        2.80481817
 C            3.06125021        0.26018578        2.68086656
 C            2.36575975        1.39311288        2.25994617
 C            2.94214884       -1.93964304        1.93197016
 C            3.56648064       -0.65527187        1.67610874
 C            2.13461703       -2.52004171        0.95453258
 C            0.48471365       -3.16569682        2.66030426
 C            1.10099785       -3.35670806        1.35684058
 C           -1.53806919       -1.76438507        2.89367307
 C           -0.93557983       -2.93357298        2.43168656
 C           -2.56438437       -1.18886688        2.15221504
 C           -1.57906846        1.02238929        2.56284417
 C           -2.60860518        0.25908767        2.01788730
 C            0.25603060        2.52766442        2.08841031
 C           -1.04707107        2.08458811        1.82058018
 C            0.84020915        3.48341003        1.27412883
 C            2.73822507        1.97617604        1.04361877
 C            2.08617501        3.13177824        0.62404555
 C            3.65777959       -0.20945361        0.36919138
 C            3.37054692        1.18731285        0.08199718
 C            2.15103597       -2.01854739       -0.35268760
 C            3.04276813       -0.99857208       -0.68354755
 C            1.13480503       -2.35719805       -1.25838638
 C            0.04034885       -3.66996329        0.42754964
 C           -1.23019765       -3.41882049        1.09271817
 C            0.16231247       -3.30434835       -0.90208658
 C           -2.96669679       -1.76976427        0.87919273
 C           -2.26853728       -2.85592992        0.35300965
 C           -3.11229223        0.57089632        0.69186955
 C           -3.37364565       -0.67815580        0.00230710
 C           -1.70053184        2.50306792        0.65536841
 C           -2.55365806        1.62347792       -0.01258271
 C            0.02100769        4.19579823        0.31640640
 C           -1.29509900        3.67223234        0.02295679
 C            1.88790982        3.34640335       -0.79952651
 C            0.76079533        4.24744741       -0.93389805
 C            2.93098443        1.26514739       -1.30334333
 C            2.71420328       -0.09238694       -1.76927466
 C            2.03769236        2.26659583       -1.67061519
 C            0.99300815       -1.61129903       -2.43953290
 C            1.60436846       -0.36214326       -2.54843906
 C            0.05368941       -1.98494796       -3.39383431
 C           -0.99517309       -3.40558645       -1.66011692
 C           -2.25328024       -3.03791819       -1.02903213
 C           -1.00561822       -2.88780184       -3.00854696
 C           -3.12420473       -0.77242446       -1.36231696
 C           -2.86917323       -2.03939027       -1.88428825
 C           -2.26555656       -2.18615669       -3.19402556
 C           -2.58387391        1.59672514       -1.40910545
 C           -2.76580315        0.38024874       -2.07934486
 C           -1.48876162        3.79591601       -1.40717047
 C           -0.17999561        4.02517930       -2.00544327
 C           -2.09714131        2.69008513       -2.12519684
 C            1.05928167        1.99285128       -2.63926235
 C            0.92820751        0.69788916       -3.15615961
 C            0.05729006        2.92675087       -2.91763603
 C           -1.25882885        2.44423005       -3.28436954
 C           -0.55390250       -0.95358464       -4.21043725
 C           -1.98979354       -0.99913356       -3.96656403
 C           -2.35580475        0.28641840       -3.41232159
 C           -0.13371931        0.42389699       -4.01771387
 C           -1.34833766        1.20911626       -3.89436659
