   70
C70 / DATE: 7/ 1/2024 / Origin: Program Fullerene / C70 from database
 C            1.50176056       -0.19908528        5.15167589
 C            0.66137648       -1.37931463        5.22724301
 C            1.19294910       -2.36392559        4.30180929
 C            2.54954363       -0.46599635        4.18403791
 C            2.31090249       -1.76422816        3.59152968
 C            2.60698506        0.66913279        3.29852918
 C            0.69891031        0.89350647        4.62348940
 C            1.43503052        1.49267015        3.53143391
 C           -0.65698830       -1.01232881        4.74672086
 C           -0.62212555        0.38460541        4.34345914
 C            0.08214589       -2.87591668        3.52251958
 C           -1.05725075       -1.99778650        3.75309472
 C            0.34031958       -3.28684433        2.22497446
 C            2.36447597       -1.88584565        2.20137709
 C            1.58245466       -2.86384871        1.59057019
 C            2.95009182        0.46135401        1.97861432
 C            2.85114416       -0.82377935        1.42604168
 C            2.71970905        1.52387582        1.12987479
 C            0.74181922        1.94892348        2.40686128
 C            1.48552693        2.17435568        1.24880316
 C           -1.21823099        0.71499874        3.13421545
 C           -0.61842157        1.64735797        2.27177264
 C           -1.79742541       -1.55349955        2.65886597
 C           -2.11558409       -0.19693011        2.59836343
 C           -0.70641692       -3.15135201        1.23072469
 C           -1.77525454       -2.29179311        1.47016132
 C            1.34128664       -2.79846355        0.15864655
 C           -0.05924987       -3.10662316       -0.06478064
 C            2.85181187       -0.93628003        0.02592495
 C            1.93106133       -1.78817945       -0.59062575
 C            3.32081090        1.44609890       -0.10731872
 C            3.37186232        0.12756985       -0.71059908
 C            2.92058303        2.39182240       -1.11876761
 C            0.82947825        2.61692856        0.09799406
 C            1.59716070        2.96545702       -1.00574498
 C           -1.27376496        1.94858692        1.06723224
 C           -0.53289099        2.34400958       -0.05770486
 C           -2.94066922        0.24244175        1.58517194
 C           -2.56492687        1.46312078        0.89707977
 C           -2.50629118       -1.82232785        0.37569196
 C           -3.31711994       -0.70793299        0.56570729
 C           -0.72132774       -2.47007975       -1.10026350
 C           -2.05500978       -2.11532658       -0.91673060
 C            1.33651262       -1.41373240       -1.80247358
 C            0.02249344       -1.81819845       -2.08254490
 C            3.00827619        0.27973981       -2.10808111
 C            2.99451928        1.70367119       -2.38866116
 C            1.99220050       -0.50787643       -2.64081250
 C            1.00823696        2.93506832       -2.32612097
 C            1.92369826        2.21515536       -3.20999892
 C           -1.12131901        2.34866274       -1.34337189
 C           -0.36043021        2.72639841       -2.46675874
 C           -3.13811773        1.39277808       -0.42790713
 C           -3.73504665        0.07009900       -0.57936469
 C           -2.46070653        1.94892871       -1.50512277
 C           -2.76175955       -1.63238565       -2.01468742
 C           -3.69174817       -0.52732038       -1.82533434
 C           -0.63802040       -1.34866278       -3.21842168
 C           -2.03488970       -1.38161979       -3.24958215
 C            1.37063654       -0.07745001       -3.81464763
 C            1.37147768        1.34905937       -4.13601558
 C            0.06405438       -0.60404117       -4.16293288
 C           -0.81781951        2.43220340       -3.75156554
 C            0.05409476        1.67736820       -4.63089325
 C           -0.61940186        0.43001469       -4.92375556
 C           -2.95277920        1.64348853       -2.77312567
 C           -3.56869150        0.34511191       -2.97532851
 C           -2.76904711       -0.35102350       -3.96244398
 C           -2.14780924        1.90724086       -3.94000429
 C           -2.02886605        0.65819389       -4.68771921
