   70
C70 / DATE: 7/ 1/2024 / Origin: Program Fullerene / C70 from database
 C            1.57944004       -0.11246257        5.50992733
 C            0.70592323       -1.24685454        5.75198604
 C            1.25954353       -2.39107879        5.04909831
 C            2.60009047       -0.52967682        4.56303886
 C            2.40096401       -1.93093593        4.27607615
 C            2.56928246        0.39876100        3.45082847
 C            0.79184758        0.92761176        4.86791478
 C            1.51486701        1.36599824        3.69422782
 C           -0.58206034       -0.94443106        5.15315745
 C           -0.55197205        0.42981324        4.67343728
 C            0.25873169       -2.86056599        4.10535348
 C           -0.89597593       -1.99321135        4.19408139
 C            2.17929459       -2.31500907        2.89514795
 C            0.89682211       -2.98953263        2.81230928
 C            2.70594932       -0.07293618        2.14797471
 C            2.49946361       -1.43101995        1.86714859
 C            2.42196275        0.83220678        1.13014553
 C            0.78893116        1.79409875        2.58739057
 C            1.44762556        1.80048583        1.36535028
 C           -1.17585518        0.69824070        3.45997190
 C           -0.59820946        1.61996556        2.57401200
 C           -1.51160467       -1.61183928        3.00778307
 C           -1.97371543       -0.30421013        2.92307784
 C            0.13534845       -2.75590324        1.67185636
 C           -1.16281752       -2.25855030        1.81438772
 C            2.02395955       -1.75214630        0.59692464
 C            0.81883499       -2.44782723        0.50201551
 C            2.60852197        0.41766884       -0.18031111
 C            2.38144858       -0.92806807       -0.46368731
 C            2.40416765        1.35010845       -1.19210400
 C            0.79562404        2.34450394        0.26915237
 C            1.47005292        2.36452405       -0.94750123
 C           -1.29707494        1.91706833        1.39442761
 C           -0.60156875        2.38502149        0.27154630
 C           -2.76297755        0.02127834        1.84083361
 C           -2.52533402        1.29817315        1.19821552
 C           -1.87285496       -1.91269196        0.65772882
 C           -2.87134217       -0.95519934        0.77667625
 C            0.09178101       -2.34148847       -0.67516727
 C           -1.28199805       -2.09578841       -0.59727060
 C            1.95009400       -1.27684767       -1.74327042
 C            0.77503175       -2.02542880       -1.84715168
 C            2.64650996        0.92229919       -2.49237183
 C            2.35246298       -0.46202779       -2.79818144
 C            2.23071806        1.73640870       -3.61487219
 C            0.87272016        3.04784704       -2.00006398
 C            1.33642763        2.84137862       -3.35867661
 C           -1.28298595        2.59127305       -0.94033377
 C           -0.57524962        3.12892054       -2.01845115
 C           -3.05547306        1.18578782       -0.14338753
 C           -3.29105261       -0.22854973       -0.40011729
 C           -2.50826839        1.94961807       -1.16593319
 C           -1.96830893       -1.69828624       -1.75380662
 C           -2.96889348       -0.71663999       -1.65726117
 C            0.07232248       -2.07376258       -3.04558886
 C           -1.37368548       -1.97153093       -2.98857783
 C            1.64606238       -0.49842803       -4.06593041
 C            1.60212392        0.85939319       -4.58964171
 C            0.53387170       -1.31533768       -4.19631251
 C            0.16937768        2.68196443       -4.20873605
 C           -1.01277618        2.87748647       -3.38404760
 C            0.32285554        1.44357319       -4.95851454
 C           -2.86388627        1.57833069       -2.46164866
 C           -3.16048451        0.17708522       -2.70664273
 C           -2.12633213        2.08329431       -3.60206878
 C           -1.81589487       -1.27942687       -4.18673688
 C           -0.63631690       -0.81757462       -4.90086678
 C           -0.77811465        0.61265177       -5.13263982
 C           -2.71179341       -0.15792871       -4.03851189
 C           -2.06617906        1.02035646       -4.59681835
