   70
C70 / DATE: 7/ 1/2024 / Origin: Program Fullerene / C70 from database
 C            1.48340277        0.07834091        4.98610264
 C            0.73235412       -1.13002011        4.70900188
 C            1.64306129       -2.05833269        4.07758220
 C            2.71477292        0.01413627        4.21283220
 C            2.81871749       -1.31318110        3.65192266
 C            2.71525155        1.13875133        3.30438449
 C            0.70979397        1.19999746        4.48637293
 C            1.57679933        1.98237277        3.63234005
 C           -0.47870542       -0.75897511        3.99027376
 C           -0.51318408        0.69065465        3.90266730
 C           -0.86928673       -1.50763130        2.87919454
 C            1.16300253       -2.77799384        2.92328460
 C           -0.18014446       -2.69087991        2.57907116
 C            2.92650454       -1.45561838        2.20640377
 C            2.13108007       -2.60840474        1.85358261
 C            3.01454517        0.94647413        1.95627578
 C            2.86178078       -0.33005508        1.39119036
 C            2.85225469        2.05700103        1.14294125
 C            1.00100499        2.69369765        2.58688621
 C            1.85006850        3.03290074        1.53944397
 C           -0.95084399        1.27640177        2.72279409
 C           -0.34833008        2.46309319        2.29333339
 C           -1.63436326       -0.88539257        1.88085614
 C           -1.67624767        0.50988432        1.80805780
 C           -2.14683399       -1.65114346        0.83115995
 C           -0.52827382       -3.36821951        1.42494884
 C           -1.71717840       -2.96681904        0.70959556
 C            1.65270656       -2.74027272        0.55601292
 C            0.51227932       -3.51859161        0.42112875
 C            2.37813446       -0.46985264        0.07958873
 C            1.84755830       -1.69580963       -0.35991315
 C            2.73034262        1.87966672       -0.28540748
 C            2.41833801        0.62133067       -0.78985634
 C            1.29919769        3.62016255        0.33327194
 C            2.02206256        3.04300996       -0.78896128
 C           -0.92904454        3.14218756        1.22852567
 C           -0.07469865        3.79480344        0.24683088
 C           -2.23484683        1.13504853        0.69373724
 C           -2.00727643        2.49757827        0.50213790
 C           -2.73076680       -1.02488498       -0.27584110
 C           -2.76297943        0.37020345       -0.34800899
 C           -3.05623012       -1.78869130       -1.40450629
 C           -1.57322513       -3.53834954       -0.61182089
 C           -0.14050402       -3.58669849       -0.86055068
 C           -2.38472364       -3.06007717       -1.62285920
 C            1.24045415       -1.77592002       -1.62743817
 C            0.37167478       -2.84607789       -1.91474991
 C            1.83850461        0.52911106       -2.05409404
 C            1.34547088       -0.69207980       -2.51145671
 C            1.40340652        2.94703347       -2.02303761
 C            1.52449497        1.69970077       -2.74934339
 C           -0.72869108        3.69870553       -1.04857587
 C           -2.01281737        3.04761100       -0.84137792
 C            0.02601059        3.39384529       -2.17701574
 C           -3.12945048        0.99726233       -1.54026609
 C           -2.57789210        2.29985111       -1.86164713
 C           -3.20200022       -1.14647143       -2.70251217
 C           -3.16444480        0.23723268       -2.77393723
 C           -1.82144999       -3.01831412       -2.95989934
 C           -0.38348401       -2.84515266       -3.08314343
 C           -2.46152091       -1.93241438       -3.67478476
 C            0.72061690       -0.73232638       -3.75888830
 C           -0.14946652       -1.83668163       -4.08710176
 C           -1.44169980       -1.28403698       -4.47619877
 C            0.45547680        1.68581597       -3.72720760
 C           -0.56700844        2.60694357       -3.24867098
 C           -1.88472344        2.17463663       -3.13566050
 C           -2.27244682        0.90051078       -3.72096246
 C            0.08234638        0.46800067       -4.26873653
 C           -1.32868734        0.16141198       -4.42930237
