   70
C70 / DATE: 7/ 1/2024 / Origin: Program Fullerene / C70 from database
 C            1.61655368        0.10364052        4.63105694
 C            0.79217695       -1.08925862        4.69194098
 C            1.27132268       -2.01874576        3.68696104
 C            2.56773884       -0.06715318        3.54561934
 C            2.40795344       -1.39913193        3.01413506
 C            2.41065398        1.04135224        2.63355291
 C            0.75042119        1.21637957        4.28526725
 C            1.27756483        1.82610393        3.08928499
 C           -0.59209497       -0.67322486        4.63658059
 C           -0.61235613        0.73514914        4.25520615
 C           -1.50638049       -1.53147019        4.04671103
 C            0.34966884       -2.74512988        2.92824181
 C           -1.02195012       -2.57917055        3.15123025
 C            0.76895252       -3.25845411        1.70307950
 C            2.55081596       -1.59557775        1.64648647
 C            2.00286252       -2.75526513        1.12737879
 C            2.52390897        0.80825384        1.26435216
 C            2.73732024       -0.49490194        0.79241728
 C            1.96608749        1.75021727        0.39916314
 C            0.39892750        2.28344561        2.12230700
 C            0.93959476        2.56850758        0.87976940
 C           -1.45779322        1.15107194        3.22473599
 C           -0.96852177        1.97184676        2.19684963
 C           -2.68686768       -0.95079058        3.43852416
 C           -2.63064101        0.43710636        3.01523442
 C           -1.94105409       -2.65817609        2.02193292
 C           -3.03133465       -1.75110153        2.27605601
 C           -0.18877042       -3.38007811        0.61358341
 C           -1.42236261       -2.76620615        0.73472325
 C            1.90871406       -2.90489894       -0.30196462
 C            0.54149565       -3.27395404       -0.62573338
 C            2.78948141       -0.69982920       -0.59422520
 C            2.52298063       -1.97509321       -1.11976376
 C            2.15706071        1.60074824       -0.97444059
 C            2.73559729        0.41565904       -1.44241591
 C            1.55077890        2.50314891       -1.85992158
 C            0.15269740        3.27706238       -0.00423763
 C            0.50237681        3.29607709       -1.40625409
 C           -1.79337693        2.28847679        1.10244570
 C           -1.28580696        3.13262672        0.10945765
 C           -3.28563813        0.51212952        1.72740862
 C           -3.41444278       -0.84678334        1.22323794
 C           -2.91872343        1.50061182        0.82448935
 C           -1.88760999       -1.93062175       -0.29998159
 C           -2.99926130       -1.09712663       -0.07897196
 C           -0.04769341       -2.66465713       -1.72507943
 C           -1.18452253       -1.86537223       -1.52520904
 C            2.19961070       -2.08188923       -2.46387474
 C            0.81000051       -2.37860262       -2.78515989
 C            2.95344132        0.23738676       -2.80630993
 C            2.65873301       -1.05830919       -3.37067458
 C            1.69353244        2.34167114       -3.23416902
 C            2.45744961        1.22413161       -3.74390340
 C            0.51406805        2.47581791       -4.07253302
 C           -0.73472070        3.34479709       -2.16796110
 C           -1.82593660        3.08707879       -1.24131662
 C           -0.75842193        2.76977610       -3.43239288
 C           -3.28460355        1.27793437       -0.50108150
 C           -3.28043992       -0.09200183       -0.98929367
 C           -2.77342200        2.12747852       -1.55644871
 C           -1.55288325       -0.92442294       -2.50318139
 C           -1.63854622        1.63409994       -3.67901858
 C           -2.64293459       -0.09392589       -2.28234136
 C           -2.58701831        1.28706302       -2.73004603
 C            0.39957997       -1.44943334       -3.81273136
 C            1.61714180       -0.87100491       -4.36228161
 C            1.62757602        0.53052518       -4.72286153
 C            0.35946373        1.22556037       -4.79203693
 C           -0.70428770       -0.64026656       -3.57847526
 C           -0.82388700        0.57909330       -4.25312923
