   70
C70 / DATE: 7/ 1/2024 / Origin: Program Fullerene / C70 from database
 C            1.21313713        0.04179084        4.58401411
 C            2.19294185       -0.18117841        3.54052435
 C            2.31580886       -1.61692255        3.42927219
 C            0.34816903       -1.12524154        4.59337650
 C            1.08106233       -2.18986744        3.95314791
 C           -0.90911270       -0.70971361        4.00585861
 C            0.35305192        1.19469345        4.47660983
 C           -1.00615243        0.70810431        4.26892641
 C            0.60748524        2.14759348        3.41740614
 C            2.13511230        0.58257630        2.37384869
 C            1.49305883        1.82739235        2.38306114
 C            2.55056147        0.02790572        1.15777049
 C            2.52119186       -2.19435529        2.11720084
 C            2.72469960       -1.36013377        1.02370935
 C            0.45847378       -2.88727172        2.84831100
 C            1.55379283       -3.26574074        1.98312421
 C           -1.26454063       -1.18665573        2.74332323
 C           -0.70304920       -2.37552950        2.26043601
 C           -2.03239908       -0.38752290        1.88841630
 C           -1.60597852        1.55925300        3.26249775
 C           -0.69474601        2.66961942        3.06639280
 C           -2.18711450        0.98706221        2.13644533
 C           -0.79585846        3.38892485        1.89157125
 C            1.40573894        2.56288266        1.19809647
 C            0.39712192        3.52160092        1.07992217
 C            2.63807237        0.84378498        0.02869813
 C            2.06403396        2.11787625        0.04838001
 C            3.03980927        0.28067522       -1.18035505
 C            2.66685234       -1.93801546       -0.24494086
 C            2.92893097       -1.15263845       -1.35638416
 C            1.23829176       -3.69594953        0.70907093
 C            1.96535691       -3.12973298       -0.41574288
 C           -1.03550950       -2.81971646        0.97791679
 C           -0.15838382       -3.68723750        0.32334115
 C           -2.51488757       -0.92937382        0.69603468
 C           -2.01527912       -2.15171551        0.23830080
 C           -3.26703755       -0.12303663       -0.15506800
 C           -2.52408962        1.83894224        1.08406098
 C           -1.87136511        3.06450485        0.96826120
 C           -3.16448320        1.31609079       -0.02829938
 C           -0.05306628        3.92780898       -0.23559856
 C           -1.45175538        3.52551870       -0.34701961
 C            1.93114238        2.84347313       -1.14016644
 C            0.79358552        3.73299115       -1.31078436
 C            2.65732660        0.90160206       -2.43417085
 C            2.17948535        2.19938874       -2.41972701
 C            2.19628270       -1.39476597       -2.59250807
 C            1.97865502       -0.10885562       -3.23816193
 C            1.12216203       -3.29680707       -1.59033681
 C           -0.17803567       -3.76743787       -1.12283111
 C            1.19572754       -2.36231631       -2.62333358
 C           -2.30546984       -2.58371937       -1.06014397
 C           -1.32097654       -3.36702026       -1.78926437
 C           -3.33869369       -0.42876470       -1.57114946
 C           -2.93266821       -1.67672502       -2.00762817
 C           -2.86646099        1.85981915       -1.34698322
 C           -1.89423449        2.84702628       -1.48264876
 C           -2.92109002        0.76284980       -2.30167510
 C            0.20391491        3.45303713       -2.60383739
 C            1.09075677        2.54687416       -3.31111880
 C           -1.13837436        2.89930032       -2.65083971
 C            0.74650775        0.17016905       -3.83370499
 C           -1.96242382        0.67358962       -3.31344746
 C            0.28291001        1.48229372       -3.87667742
 C           -1.10816966        1.74858935       -3.54001865
 C            0.09866427       -2.17780427       -3.46067286
 C           -1.17511495       -2.77908823       -3.10498414
 C           -2.20860125       -1.77117638       -3.25960932
 C           -0.17564903       -0.85769735       -4.00630599
 C           -1.58910513       -0.57587719       -3.80118932
