   70
C70 / DATE: 7/ 1/2024 / Origin: Program Fullerene / C70 from database
 C            1.31403404        0.05678037        4.86668591
 C            2.47076892       -0.14369832        4.02067407
 C            2.48710319       -1.54211437        3.62958023
 C            0.47344886       -1.12649916        4.75222256
 C            1.21617858       -2.13070802        4.01611571
 C           -0.81658198       -0.69944736        4.23658489
 C            0.47439640        1.20795686        4.61693089
 C           -0.88757812        0.72587580        4.44933048
 C            0.75812382        2.05716165        3.47185412
 C            2.61170762        0.65233947        2.81022336
 C            1.68951008        1.65663307        2.51503682
 C            2.88997627       -1.60309453        2.23420725
 C            3.03765344       -0.24327882        1.75098254
 C            2.28920454       -2.52955505        1.39235220
 C            0.53758756       -2.89670693        3.08079105
 C            1.23352999       -3.30642366        1.87739437
 C           -1.27892969       -1.23998427        3.03430172
 C           -0.79929754       -2.48960366        2.66045853
 C           -1.90230635       -0.41655299        2.07875913
 C           -1.49758273        1.53098693        3.42239594
 C           -0.53058255        2.53726253        3.01779125
 C           -2.22477103        0.90881874        2.41762533
 C           -0.64663557        3.03218103        1.72629659
 C            1.46600079        2.00659522        1.18237732
 C            0.46073400        2.93234832        0.88122649
 C            2.65867243        0.03434886        0.44451493
 C            2.04992292        1.25203753        0.15531516
 C            2.37821230       -2.32639572        0.01693959
 C            2.53281308       -1.01506085       -0.46456125
 C            1.79769383       -3.29034972       -0.79742399
 C            0.19561136       -3.73121961        0.95590785
 C           -0.98404886       -2.95465606        1.29912339
 C            0.52691478       -3.84827000       -0.37885877
 C           -2.02511329       -0.85262503        0.74147904
 C           -1.52814624       -2.09647868        0.34782783
 C           -2.62981860       -0.03680666       -0.21642420
 C           -2.69774718        1.75867361        1.43100619
 C           -1.91296166        2.95160613        1.15634469
 C           -3.09658680        1.21719224        0.15597883
 C           -2.08808216        3.28334175       -0.24358373
 C           -3.02364137        2.31297089       -0.79347001
 C            0.35097600        3.40309317       -0.42376446
 C           -0.97139416        3.65186644       -0.98117351
 C            1.79728512        1.57877365       -1.17513769
 C            1.14813165        2.77607692       -1.45992868
 C            2.26975797       -0.71206974       -1.80616844
 C            1.92756833        0.59801785       -2.16498383
 C            1.70262421       -3.05236132       -2.21843537
 C            2.05430851       -1.74283786       -2.71826892
 C           -0.43319385       -3.38874655       -1.35963028
 C           -1.31368618       -2.36331409       -1.00990869
 C            0.31347966       -3.28303795       -2.59058377
 C           -2.49348506       -0.33397767       -1.57640502
 C           -1.72010413       -1.43184971       -1.97707978
 C           -2.96723704        2.00449111       -2.14086209
 C           -2.92356650        0.60427032       -2.51524814
 C           -0.92554018        3.34535731       -2.40086309
 C            0.43883072        2.93566145       -2.71596356
 C           -2.00663648        2.69264665       -2.98791999
 C            1.51102427        0.86888835       -3.47310159
 C            0.67645506        2.03059355       -3.74003641
 C            1.16522632       -1.51163465       -3.83694086
 C           -0.05042320       -2.24112930       -3.51623557
 C           -1.20784616       -1.50784939       -3.28917262
 C            1.02616746       -0.21848001       -4.31015143
 C           -2.40239396        0.55477763       -3.86131337
 C           -1.78639268        1.84564504       -4.14459904
 C           -0.42598460        1.60166722       -4.58382157
 C           -1.44452916       -0.47340082       -4.18761538
 C           -0.28880902        0.17328086       -4.78700115
