   70
C70 / DATE: 7/ 1/2024 / Origin: Program Fullerene / C70 from database
 C            1.12375502        0.05349143        4.47269286
 C            2.44067597       -0.21031932        3.94614524
 C            2.46148095       -1.59026974        3.49463095
 C            0.30807159       -1.13266158        4.24901111
 C            1.08945175       -2.06699013        3.47612083
 C           -0.95899314       -0.69834841        3.71567997
 C            0.38730083        1.18822516        3.95576650
 C           -0.98474881        0.75428176        3.75975217
 C            0.96127262        2.03723543        3.01185389
 C            2.92704492        0.61166534        2.85782683
 C            2.21556212        1.73877775        2.44795996
 C            3.22064280       -1.64404252        2.25925248
 C            3.47770713       -0.27324974        1.84130068
 C            2.82789812       -2.56150245        1.30243444
 C            0.58061941       -2.57574490        2.28198820
 C            1.49567775       -3.14273509        1.40456387
 C           -1.48916537       -1.33220097        2.60030445
 C           -0.66054781       -2.12914267        1.79067834
 C           -2.61356640       -0.74063279        2.05010026
 C           -1.78599919        1.43161273        2.84289713
 C           -2.76428184        0.70421903        2.16638815
 C            0.10815973        2.93812808        2.37945310
 C           -1.31093449        2.62025260        2.28616369
 C            0.50501831        3.59013907        1.14534946
 C            2.58066296        2.29836285        1.22569837
 C            1.72119544        3.26380728        0.56811221
 C            3.35305245        0.08900211        0.49683188
 C            3.15254248        1.43419330        0.20306223
 C            3.01465076       -2.22380269       -0.09050452
 C            3.03793067       -0.88185995       -0.46369237
 C            1.08048714       -3.49513322        0.06666385
 C            2.17672876       -3.14495419       -0.82669721
 C           -1.04467598       -2.43300332        0.46618433
 C           -0.22445883       -3.23905239       -0.33605737
 C           -3.05971431       -1.12889171        0.73334127
 C           -2.23661449       -1.91314928       -0.06358160
 C           -3.28286397        1.18861248        0.89898655
 C           -3.72155284        0.02494789        0.15089097
 C           -1.77737908        3.04933924        0.97489825
 C           -0.67908021        3.73112172        0.31241989
 C           -2.62646884        2.22494545        0.24180465
 C           -0.56706341        3.64698803       -1.06706023
 C            1.80495234        3.02651415       -0.86446451
 C            2.56849601        1.80824985       -1.06950804
 C            0.70398085        3.26956250       -1.67012530
 C            2.47233086       -0.50610199       -1.69096541
 C            2.07123293        0.81263886       -1.90157420
 C            1.87664951       -2.85083273       -2.14283740
 C            2.08666201       -1.48575134       -2.60353648
 C           -0.51015084       -3.38402366       -1.69107243
 C            0.58521628       -3.27749565       -2.64020016
 C           -2.48108761       -1.95355861       -1.43981181
 C           -1.64907365       -2.69897857       -2.26600611
 C           -3.80449132        0.11152984       -1.22532067
 C           -3.32365320       -1.00388928       -2.01955727
 C           -2.60431078        2.25781368       -1.15696496
 C           -1.62043419        2.99158839       -1.82260030
 C           -3.35504867        1.32994939       -1.87775727
 C            0.41556380        2.35213302       -2.75832489
 C            1.03119727        1.10193156       -2.79448864
 C           -1.00573551        2.44806092       -3.02459667
 C            1.04649346       -1.17843791       -3.57018755
 C            0.18773481       -2.34459786       -3.67358549
 C           -1.24202821       -2.15252724       -3.55807425
 C            0.45751145        0.08284581       -3.55984122
 C           -2.98785603       -0.47875679       -3.32918115
 C           -2.93422814        0.96967653       -3.22212683
 C           -1.63031078        1.40482514       -3.68798988
 C           -1.76010866       -0.92911388       -3.95232419
 C           -0.85898465        0.21508416       -4.01659267
