   70
C70 / DATE: 7/ 1/2024 / Origin: Program Fullerene / C70 from database
 C            1.22644343       -0.00305423        4.45933460
 C            2.50150036       -0.29084073        3.85882603
 C            2.42122698       -1.63633398        3.30828536
 C            0.38573798       -1.17547369        4.26228605
 C            1.01919787       -1.97606540        3.24084434
 C           -0.94707072       -0.68508278        4.00862472
 C            0.47104768        1.12251044        3.95381910
 C           -0.90694863        0.75855524        4.19051233
 C            0.80886467        1.68786227        2.71956209
 C            2.95385435        0.55711697        2.77799735
 C            2.03848199        1.38341710        2.11869271
 C            3.17348033       -1.61914530        2.07792525
 C            3.79537641       -0.30653025        1.98393989
 C            2.60101571       -2.15042210        0.92741635
 C            0.40829433       -2.07820586        1.99027040
 C            1.19981777       -2.23377727        0.84041257
 C           -1.65863228       -1.18638694        2.92489496
 C           -0.96120462       -1.79236573        1.86316166
 C           -2.88334822       -0.58393202        2.67557860
 C           -1.89080804        1.50931879        3.57474501
 C           -3.05790779        0.79803154        3.09031267
 C           -0.20023132        2.29143183        1.96290244
 C           -1.48479105        2.40971201        2.50746013
 C           -0.00472259        2.51907296        0.59816858
 C            2.22830329        1.64187753        0.75597283
 C            1.14665551        2.04315674       -0.03090478
 C            4.16523057        0.12808317        0.72667065
 C            3.41078557        1.23069061        0.14501004
 C            3.34766975       -2.00738113       -0.23509417
 C            4.26771494       -0.88426308       -0.30348201
 C            2.70362394       -2.11777377       -1.52647316
 C            0.57476116       -2.32722931       -0.40817459
 C            1.32710232       -2.29605144       -1.59151826
 C           -1.58805308       -1.97676388        0.62257961
 C           -0.81821465       -2.38941909       -0.47539422
 C           -3.49760951       -0.73017944        1.37954482
 C           -2.91956887       -1.56565646        0.43970838
 C           -3.58800590        1.54048888        1.96274629
 C           -2.63306247        2.57675673        1.62914542
 C           -3.95360441        0.58101721        0.93991960
 C           -1.04909540        3.01931113       -0.16859623
 C           -2.41474964        2.85975007        0.29288054
 C           -1.05337537        2.78353220       -1.59387927
 C            1.21284842        1.96941892       -1.43685518
 C            0.09239707        2.31047376       -2.21364570
 C            3.44876745        1.06801407       -1.29575650
 C            4.05717163       -0.22360714       -1.56995933
 C            3.32882551       -1.14738427       -2.41456242
 C            2.35125448        1.43851397       -2.06384712
 C            2.54859372       -0.59627058       -3.41333898
 C            2.21856380        0.81641948       -3.30505188
 C            0.68998120       -2.07530794       -2.81501899
 C            1.31177684       -1.26380333       -3.76395490
 C           -1.42118808       -2.60966863       -1.71104936
 C           -0.67683953       -2.30718494       -2.91780255
 C           -3.42819314       -1.45700149       -0.84573332
 C           -2.77594624       -2.15677489       -1.92263006
 C           -3.78926124        0.91579310       -0.40195201
 C           -3.13259773        2.10512648       -0.73035941
 C           -2.33500342        2.18313365       -1.94463194
 C           -3.79382430       -0.13071508       -1.32038095
 C           -1.49711241       -1.41750076       -3.73472487
 C           -2.77708383       -1.27639694       -3.07841074
 C           -2.36404830        1.14199151       -2.86987360
 C           -3.18886619        0.04349013       -2.62976917
 C           -0.07065373        1.75071503       -3.47582700
 C            1.02026706        1.02946049       -4.08376802
 C            0.51869103       -0.27938531       -4.47408814
 C           -1.29697948        1.02391560       -3.76233038
 C           -0.91672295       -0.28482445       -4.28131211
