   70
C70 / DATE: 7/ 1/2024 / Origin: Program Fullerene / C70 from database
 C            1.27752285       -0.02953721        4.32258752
 C            2.53109328       -0.26836008        3.64730867
 C            2.53235565       -1.65264020        3.21270993
 C            0.45331629       -1.22224688        4.16915520
 C            1.16951730       -2.14293627        3.31756642
 C           -0.86485750       -0.78685457        3.76558782
 C            0.47016792        1.09938525        3.90839311
 C           -0.90633747        0.65136836        3.95018586
 C            0.87570199        1.90608794        2.84438296
 C            2.86451040        0.54501522        2.49645504
 C            2.03454703        1.59507203        2.11284974
 C            3.17974898       -1.70762856        1.91576225
 C            3.37626551       -0.33787191        1.46371286
 C            2.71542299       -2.63815452        1.00373976
 C            0.55705696       -2.64585939        2.17232732
 C            1.38235893       -3.19578896        1.19596327
 C           -1.45199703       -1.32772791        2.62626684
 C           -0.73089738       -2.22134455        1.81379743
 C           -2.58610009       -0.69199770        2.11607291
 C           -1.84974044        1.37616698        3.24265540
 C           -2.78334270        0.66290810        2.38478987
 C           -0.06071739        2.78718466        2.29549913
 C           -1.42249690        2.56291668        2.51802581
 C            0.32655512        3.62380694        1.25303970
 C            2.18627356        2.10706685        0.82607951
 C            1.50814608        3.27351225        0.48951334
 C            3.13018363       -0.00715095        0.13098632
 C            2.73990258        1.29786410       -0.17286547
 C            2.84073318       -2.34410052       -0.40720377
 C            2.96756876       -1.02002680       -0.82471704
 C            0.84425597       -3.49627197       -0.11835067
 C            1.89201337       -3.20518468       -1.08176383
 C           -1.29117759       -2.65948571        0.60768467
 C           -0.46751329       -3.14529790       -0.41603176
 C           -3.23216086       -1.23945234        1.01538631
 C           -2.62365945       -2.36832119        0.34373107
 C           -3.72505894       -0.33912177       -0.01612080
 C           -3.14030486        1.54859752        1.28776378
 C           -2.37930762        2.77506378        1.44067014
 C           -3.33164060        0.99394028        0.02657189
 C           -0.67864314        4.10325053        0.31912497
 C           -1.98125149        3.46705432        0.31024802
 C            1.25716214        3.59583524       -0.90601724
 C           -0.12854726        4.01149960       -1.01991501
 C            2.65320210        1.67871499       -1.50555595
 C            1.77462619        2.76944398       -1.88892796
 C            2.61810446       -0.69221169       -2.14015052
 C            2.53862300        0.64694720       -2.52037059
 C            1.53045337       -2.88898166       -2.37678723
 C            2.05568767       -1.66836136       -2.96534977
 C           -0.84900845       -3.02460361       -1.76000615
 C            0.13047687       -2.97435810       -2.75075233
 C           -3.08812287       -2.35118447       -1.02767299
 C           -3.69441859       -1.05076458       -1.27395388
 C           -2.13027905       -2.58895822       -2.08506241
 C           -2.99323519       -0.44660422       -2.38517951
 C           -2.28777739       -1.51792716       -3.05888735
 C           -2.69168959        1.56382407       -1.08433035
 C           -2.17000628        2.85164962       -0.99462578
 C           -1.03323091        3.20713877       -1.82467898
 C           -2.35209501        0.77306346       -2.18884194
 C            0.87897360        2.25210549       -2.90947483
 C            1.51431023        1.07401356       -3.46802046
 C           -0.49737716        2.24999782       -2.67905901
 C           -1.23905910        1.10362436       -2.97243293
 C            1.13112253       -1.26787318       -4.01193759
 C           -0.06527372       -2.08286698       -3.88107769
 C           -1.21535661       -1.19650182       -3.87503759
 C            0.72120505        0.12017383       -4.08456965
 C           -0.71648361        0.17026581       -3.87086578
