   70
C70 / DATE: 7/ 1/2024 / Origin: Program Fullerene / C70 from database
 C            1.25351803        0.10313600        5.17819427
 C            0.39174311       -1.06630922        5.24470464
 C            1.05005558       -2.13745659        4.52535254
 C            2.40962489       -0.23638329        4.36768235
 C            2.35730419       -1.66063147        4.10219806
 C            2.46337638        0.68239970        3.23598483
 C            0.52916892        1.14172740        4.47574765
 C            1.35871921        1.61032271        3.37494765
 C           -0.83760718       -0.75970164        4.53327658
 C           -0.79271636        0.63503888        4.15054820
 C            0.12921553       -2.63003231        3.50945753
 C           -1.02124405       -1.74584996        3.48088598
 C            0.65432048       -3.06091249        2.30120044
 C            2.83275085       -2.10524585        2.88232037
 C            2.04051814       -3.07667872        2.15640973
 C            2.76858246        0.17794907        1.97056958
 C            3.24807218       -1.12475542        1.88831848
 C            2.22343746        0.79080692        0.82843999
 C            0.71060197        2.02859410        2.22389658
 C            1.34369062        1.86520874        0.99193160
 C           -1.30289602        0.98195741        2.91108851
 C           -0.67840740        2.01916751        2.23496944
 C           -1.50887631       -1.31403047        2.24648278
 C           -1.92923655        0.00927357        2.13069435
 C           -0.13671827       -2.97369871        1.15337466
 C           -1.14812559       -2.00525631        1.08649535
 C            0.35835305       -3.52965544       -0.01984973
 C            2.59539814       -3.10750984        0.82444271
 C            3.22512659       -1.80615468        0.61428639
 C            1.80459923       -3.61437653       -0.18938632
 C            2.35742438        0.18821777       -0.43392692
 C            2.91810782       -1.09595383       -0.53981165
 C            1.79238578        0.80592592       -1.56669942
 C            0.70789253        2.42283198       -0.11804033
 C            1.00343222        1.95958127       -1.40429550
 C           -1.32100122        2.49735289        1.11222779
 C           -0.52404287        3.03465986        0.11102066
 C           -2.47129531        0.44425755        0.92527833
 C           -2.46712185        1.81738203        0.72016203
 C           -1.59922555       -1.52867216       -0.15605379
 C           -2.39456744       -0.37992693       -0.20269530
 C           -0.21887805       -3.14190512       -1.29291531
 C           -1.11874227       -2.08067085       -1.34696941
 C            2.09978417       -3.16761647       -1.52896734
 C            2.68581356       -1.84725874       -1.68271243
 C            0.85223733       -3.17284693       -2.25998131
 C            1.81742653        0.14039482       -2.80505415
 C            2.03938266       -1.23157774       -2.80981337
 C            0.92269115       -2.08273719       -3.19269603
 C            1.00588862        0.60174944       -3.83608811
 C            0.32421471        2.52084993       -2.49846335
 C            0.40845834        1.91085717       -3.74574453
 C           -1.17316306        3.67015065       -0.93308592
 C           -0.66293393        3.48576099       -2.27527356
 C           -3.15958253        2.31301724       -0.36696486
 C           -2.61358327        3.49862753       -0.99641128
 C           -2.79685574        0.14618787       -1.44020297
 C           -3.45879894        1.38097069       -1.43526028
 C           -1.26481151       -1.36926959       -2.54868047
 C           -0.24412937       -1.42573384       -3.51947757
 C           -0.03690153       -0.30335150       -4.29509683
 C           -2.22415180       -0.34842706       -2.62484990
 C           -0.76104595        1.86689267       -4.61324028
 C           -1.17905065        0.48056170       -4.66612047
 C           -2.34614051        0.36339530       -3.82715449
 C           -1.80287941        3.58976606       -3.17994702
 C           -3.01162521        3.47794790       -2.38662544
 C           -3.58101407        2.16538943       -2.65030970
 C           -1.93225855        2.62979751       -4.25008091
 C           -2.96368849        1.67247873       -3.85364380
