   70
C70 / DATE: 7/ 1/2024 / Origin: Program Fullerene / C70 from database
 C            1.37738664       -0.30872352        5.38361147
 C            0.49514604       -1.45541486        5.28925848
 C            1.08495016       -2.40088767        4.35408021
 C            2.53337143       -0.57072687        4.54413905
 C            2.36870810       -1.87561834        3.93263248
 C            2.71141681        0.57907283        3.67895608
 C            0.67973553        0.83797341        4.82169208
 C            1.55498241        1.44966388        3.85243986
 C           -0.75356491       -0.99821096        4.70993405
 C           -0.62205311        0.40538154        4.36879127
 C            0.08743455       -2.70441999        3.33979565
 C           -1.09192552       -1.91149354        3.64129623
 C            0.47778682       -2.82737506        2.00076528
 C            2.73778976       -2.02954269        2.60485694
 C            1.82701441       -2.69312786        1.67966467
 C            3.20157881        0.39325440        2.38791836
 C            3.33096612       -0.90649619        1.88958476
 C            3.02249054        1.44054025        1.49074011
 C            1.00438836        2.02714692        2.71446191
 C            1.90192885        2.34069773        1.70840836
 C           -1.06262004        0.80632776        3.10851100
 C           -0.32569357        1.73787274        2.36393251
 C           -1.79363212       -1.41387089        2.56188168
 C           -1.94650258       -0.03081803        2.43072776
 C           -0.48705702       -2.62905772        1.00087076
 C           -1.73851883       -2.15358219        1.39700293
 C           -0.09281163       -2.49194146       -0.34233014
 C            2.20028327       -2.27091245        0.34467647
 C            3.13277610       -1.16463248        0.46955907
 C            1.23513573       -2.20039898       -0.64756716
 C            3.10399102        1.19718036        0.06217312
 C            3.01779515       -0.10411412       -0.42104192
 C            1.40847038        2.75544364        0.41716775
 C            2.31863715        2.23714199       -0.58321380
 C           -0.80405944        2.09112084        1.09143824
 C            0.04889494        2.69733772        0.15576069
 C           -2.55804326        0.44192683        1.27088174
 C           -2.04476857        1.59500434        0.67134051
 C           -2.67893956       -1.84086397        0.43889240
 C           -3.21860615       -0.49637802        0.47815464
 C           -1.06506311       -2.29319431       -1.33130870
 C           -2.39239786       -2.13517776       -0.94256210
 C           -0.68638095       -1.88843415       -2.61964340
 C            1.50419495       -1.41584772       -1.76144924
 C            2.35555480       -0.31354599       -1.62997798
 C            0.63201293       -1.46606966       -2.84456879
 C            1.80767279        1.99129549       -1.84683230
 C            2.14383022        0.78535602       -2.45601961
 C           -0.35357063        2.80677980       -1.17684857
 C            0.59290707        2.58742533       -2.18696917
 C           -2.57590408        2.03150814       -0.54225807
 C           -1.70947865        2.73327367       -1.46794396
 C           -3.62742714       -0.15470938       -0.87065382
 C           -3.27059602       -1.28242408       -1.72237355
 C           -3.42125705        1.13952118       -1.32258670
 C           -1.69598968       -1.58679662       -3.54114848
 C           -2.95389310       -1.06108225       -3.05020772
 C           -1.39446502       -0.85960491       -4.75860043
 C            0.95169174       -0.69029277       -3.96007074
 C            1.67295645        0.54860542       -3.73933032
 C           -0.03212651       -0.45078940       -4.99749927
 C            0.19512390        2.52482873       -3.52010262
 C            0.91021011        1.60191993       -4.38071074
 C           -0.04208960        0.97608392       -5.27825923
 C           -2.14877959        2.42795063       -2.81915582
 C           -3.14444902        1.36653241       -2.73215360
 C           -3.08734239        0.27721670       -3.59927411
 C           -2.23068323        0.33546549       -4.77048577
 C           -1.21738703        2.42788932       -3.84880862
 C           -1.36113702        1.48183749       -4.94404208
