   70
C70 / DATE: 7/ 1/2024 / Origin: Program Fullerene / C70 from database
 C            1.48466212        0.03075305        4.84554145
 C            0.72244788       -1.19950780        4.72391814
 C            1.47407606       -2.11023287        3.87800989
 C            2.66589174       -0.09984318        4.01243254
 C            2.76052161       -1.48210874        3.59268065
 C            2.61380801        0.92551934        2.98570004
 C            0.67530507        1.10340243        4.29740006
 C            1.39347841        1.68833555        3.18453336
 C           -0.62771037       -0.84708857        4.33513275
 C           -0.65122014        0.58037997        4.04560712
 C           -1.31357809       -1.70432311        3.48734125
 C            0.80989876       -2.82100729        2.87261068
 C           -0.57801712       -2.72691756        2.75314611
 C            1.54291790       -3.33198386        1.80473618
 C            3.37579036       -1.74836862        2.38028638
 C            2.91396655       -2.89158392        1.62179189
 C            2.98952924        0.59483497        1.68418601
 C            3.57030871       -0.65253273        1.43571474
 C            2.43385902        1.30570024        0.61750489
 C            0.67264447        2.07070112        2.06295340
 C            1.33346574        2.13977919        0.84601425
 C           -1.33298339        1.01949270        2.91433188
 C           -0.71590159        1.94287290        2.05610130
 C           -2.29918991       -1.14471577        2.58095934
 C           -2.37896894        0.23527611        2.42895085
 C           -1.19859950       -2.86704323        1.44052484
 C           -2.33869011       -1.97573862        1.38844751
 C            0.92691213       -3.41976745        0.48763797
 C           -0.39813968       -3.01427154        0.31689061
 C            3.10723007       -2.59735689        0.21459419
 C            3.50905932       -1.21145199        0.09254886
 C            1.92023413       -3.02062334       -0.49523123
 C            2.72020951        0.89757452       -0.68495609
 C            2.94269103       -0.45186790       -0.92380165
 C            2.29199217        1.68728298       -1.74049006
 C            0.67367342        2.71675913       -0.23437343
 C            1.31689420        2.72379262       -1.46755669
 C           -1.41822107        2.40596064        0.94182158
 C           -0.71173800        2.90204909       -0.16237785
 C           -3.12232930        0.71718827        1.36340689
 C           -2.72912656        1.97553853        0.76893851
 C           -2.69446149       -1.37832576        0.18489370
 C           -3.40337212       -0.18772808        0.26023678
 C           -0.78767405       -2.43233646       -0.89654059
 C           -1.95097483       -1.64558328       -0.96865943
 C            1.49193942       -2.26395691       -1.57120082
 C            2.17778565       -1.09229722       -1.90398626
 C            0.15618883       -2.35845184       -1.92182897
 C            1.89736914        1.03830982       -2.97936915
 C            1.71066576       -0.34575680       -2.98985379
 C            0.56162997        2.95389598       -2.68444573
 C            0.94405030        1.91996836       -3.64115853
 C           -1.41764852        3.33105875       -1.29045467
 C           -0.75841456        3.36884521       -2.58702510
 C           -3.32077238        2.00612264       -0.55276236
 C           -3.56825873        0.62017729       -0.92944339
 C           -2.77772734        2.85784734       -1.49891434
 C           -2.26798796       -0.98709203       -2.16718194
 C           -3.08425103        0.15741382       -2.14796538
 C           -0.21059187       -1.84623127       -3.15162906
 C            0.69563015       -0.89771379       -3.77285306
 C           -1.54695315       -1.32044207       -3.31237394
 C            0.00646063        1.38855688       -4.51951432
 C           -0.09974187       -0.05106934       -4.64450254
 C           -1.49559627       -0.41206149       -4.44197473
 C           -1.71909460        2.94997673       -3.59162211
 C           -2.90131020        2.47905673       -2.89376010
 C           -3.05812359        1.06993311       -3.20527017
 C           -1.34267158        1.92499615       -4.54872750
 C           -2.26314757        0.80802915       -4.38572161
