   70
C70 / DATE: 7/ 1/2024 / Origin: Program Fullerene / C70 from database
 C            1.12880868       -0.05682907        4.64642890
 C            2.38522697       -0.35415419        4.00196935
 C            2.28071430       -1.69614876        3.44783079
 C            0.28456419       -1.23465561        4.50907918
 C            0.88048130       -2.05664285        3.47792382
 C           -1.06825383       -0.76953021        4.32065847
 C            0.35522535        1.06820053        4.16562714
 C           -1.02783261        0.68552578        4.32648466
 C            0.72497928        1.71685564        2.98655714
 C            2.83427576        0.50527421        2.92565187
 C            1.98840477        1.49049798        2.41122030
 C            2.95242438       -1.67875612        2.16503527
 C            3.53600221       -0.35986184        1.99979673
 C            2.32903075       -2.25476763        1.06598967
 C            0.21957828       -2.24074500        2.26270572
 C            0.96522236       -2.57901310        1.13484876
 C           -1.77811348       -1.16431425        3.11998237
 C           -1.11460680       -1.84548685        2.10036608
 C           -1.97323025        1.14021836        3.33202454
 C           -2.60973997       -0.03704912        2.76187355
 C           -0.24368651        2.44073300        2.27943634
 C           -1.60778797        2.16145742        2.46233431
 C            0.16476547        3.24944659        1.22379571
 C            2.29008301        2.03489670        1.15790550
 C            1.45073383        2.99443483        0.60516195
 C            3.75463268        0.09780347        0.70972378
 C            3.18885957        1.37767611        0.31567340
 C            2.90296776       -2.03182118       -0.18296943
 C            3.55545741       -0.81947156       -0.40339991
 C            2.36959876       -2.69760023       -1.27646075
 C            0.29721781       -2.93285003       -0.03366801
 C            1.07629391       -3.32758732       -1.11323341
 C           -1.66203132       -1.80347346        0.81367650
 C           -0.99822343       -2.44124337       -0.24359589
 C           -3.07806913        0.05235663        1.45905690
 C           -2.75707246       -0.96546226        0.55894229
 C           -2.50435356        2.42517929        1.43130822
 C           -3.33242446        1.32829621        0.96134779
 C           -0.77248307        3.60590711        0.17083324
 C           -2.09319129        3.20000453        0.27601229
 C            1.26288806        3.01825371       -0.83780128
 C           -0.07977942        3.50070678       -1.10457080
 C            2.91204002        1.31947967       -1.11326425
 C            3.19357262       -0.02724892       -1.56982012
 C            1.80752483        1.99417100       -1.61098736
 C            2.31839288       -2.00114900       -2.54723688
 C            2.38958880       -0.60901899       -2.54196834
 C            0.48253944       -3.43587115       -2.42672787
 C            1.32046209       -2.67880167       -3.34766603
 C           -1.58484702       -2.47960492       -1.51931382
 C           -0.87744936       -2.98696552       -2.60715482
 C           -3.28884001       -0.90126858       -0.72234100
 C           -2.69661820       -1.68681252       -1.78419737
 C           -3.56571421        1.51499695       -0.45930250
 C           -2.78675774        2.66766587       -0.88821223
 C           -3.64908109        0.39527923       -1.27480853
 C           -0.75262522        3.03721680       -2.22590332
 C           -2.15260407        2.65295744       -2.12558879
 C            1.05804740        1.42599052       -2.64523122
 C            1.36376250        0.14564454       -3.12939547
 C           -0.09381884        2.07507454       -3.09058873
 C            0.45133456       -1.88398972       -4.18378452
 C           -0.91503785       -2.26056623       -3.86518807
 C            0.52696215       -0.44046244       -4.08388084
 C           -2.73198197       -0.88840106       -3.00305528
 C           -3.14207460        0.45511788       -2.63524705
 C           -2.37395558        1.54224843       -3.03998069
 C           -1.13256010        1.31805831       -3.76593021
 C           -1.72742955       -1.06038905       -3.94554036
 C           -0.83038915        0.05038773       -4.23924739
