   70
C70 / DATE: 7/ 1/2024 / Origin: Program Fullerene / C70 from database
 C            0.97098470       -0.01883873        4.71277086
 C            2.24461691       -0.33383831        4.10502978
 C            2.21554220       -1.74094997        3.75303049
 C            0.13667894       -1.21121019        4.63326332
 C            0.82629559       -2.15469110        3.78010803
 C           -1.19319081       -0.79010478        4.26032560
 C            0.19662380        1.07798467        4.17088062
 C           -1.18647377        0.66295106        4.20617099
 C            0.63768037        1.75773937        3.03840509
 C            2.64649044        0.39179943        2.91741703
 C            1.83819698        1.39901951        2.40430815
 C            2.94182060       -1.89887854        2.50936650
 C            3.22392875       -0.56656320        1.99207679
 C            2.48071350       -2.85227104        1.61786064
 C            0.24230159       -2.58763322        2.58682443
 C            1.07099740       -3.22902745        1.67340798
 C           -1.74104141       -1.25765901        3.00222863
 C           -0.94871402       -2.00221222        2.12962156
 C           -2.03456553        1.05550012        3.09877428
 C           -2.51692689       -0.15940101        2.46837842
 C           -0.28889784        2.52227447        2.32778948
 C           -1.62371923        2.08901324        2.26050347
 C            0.20510235        3.36034150        1.33468803
 C            2.04995702        1.79404272        1.08542312
 C            1.39863409        2.93490552        0.62806694
 C            3.10583032       -0.34015921        0.61905082
 C            2.53975923        0.85968473        0.16364579
 C            2.81054691       -2.69200903        0.21862363
 C            3.18725523       -1.43301607       -0.24795684
 C            0.61921920       -3.42218318        0.30854856
 C            1.81195199       -3.44425246       -0.51699440
 C           -1.23828791       -1.96204144        0.75650076
 C           -0.50211182       -2.73421407       -0.14353434
 C           -2.75235506       -0.10914680        1.10596250
 C           -2.25049995       -1.11972741        0.28208382
 C           -2.33081183        2.24784932        1.06588796
 C           -3.00312266        1.13664972        0.54461516
 C           -0.71021997        3.92123119        0.36170847
 C           -2.02050299        3.32232512        0.23896181
 C            1.14236625        3.08000020       -0.79261158
 C           -0.07074952        3.84737735       -0.94241714
 C            2.28012740        1.03081177       -1.20071071
 C            1.36209369        1.98720714       -1.61707873
 C            3.16166776       -1.20949380       -1.61921205
 C            2.71132048        0.08053431       -2.10913022
 C            1.68054115       -3.20026618       -1.87089172
 C            2.57980268       -2.23099795       -2.47220908
 C           -0.66966556       -2.54668625       -1.51766517
 C            0.35567331       -2.92153043       -2.39428509
 C           -2.52652753       -1.05558778       -1.08775311
 C           -1.72276248       -1.76237701       -1.99498777
 C           -3.51333978        1.16269465       -0.74498805
 C           -3.39100824       -0.04929759       -1.53486655
 C           -2.32145778        3.24735316       -1.17740073
 C           -1.05863647        3.38599188       -1.88996486
 C           -3.22329020        2.29128977       -1.61554926
 C            0.49457095        1.70605898       -2.68651577
 C           -0.71119257        2.41996093       -2.83112707
 C            1.93359382       -0.13206860       -3.31749884
 C            1.85976079       -1.56679643       -3.54192175
 C            0.54733662       -2.17928374       -3.62836460
 C            0.78498727        0.62811676       -3.54053334
 C           -1.74946241       -1.45513344       -3.35910490
 C           -0.49420193       -1.39139105       -4.07578874
 C           -0.24258156        0.02689103       -4.26679785
 C           -3.39584577        0.35403269       -2.92394576
 C           -3.05897097        1.76662542       -2.95919948
 C           -1.75177066        1.87651536       -3.57952757
 C           -2.51035586       -0.32086005       -3.83930201
 C           -1.54170929        0.65702562       -4.32247444
