   70
C70 / DATE: 7/ 1/2024 / Origin: Program Fullerene / C70 from database
 C            1.28846061       -0.10355375        4.45627364
 C            2.53544873       -0.46695799        3.83086563
 C            2.52344376       -1.90448740        3.60768178
 C            0.45540879       -1.29716631        4.52841999
 C            1.19909411       -2.39994875        3.95140831
 C           -0.83994131       -0.95145639        3.96842990
 C            0.48683011        0.94087811        3.85012320
 C           -0.89080834        0.49649490        3.93739858
 C            0.91239789        1.57932657        2.67998507
 C            2.89306613        0.16988563        2.58061241
 C            2.10736568        1.19715426        2.05080397
 C            3.05671865       -2.15209227        2.27547051
 C            3.36436271       -0.86453468        1.68094852
 C            2.48598685       -3.13991781        1.48708493
 C            0.55129839       -3.25945334        3.07378465
 C            1.30395046       -3.83181634        1.97095371
 C           -1.33173143       -1.67108240        2.87893212
 C           -0.77302052       -2.90913966        2.57161943
 C           -2.15301807       -1.02830767        1.94455149
 C           -1.81500150        1.10176260        3.11071755
 C           -2.59262945        0.26524470        2.21271363
 C           -0.02776720        2.32910278        1.96635203
 C           -1.37566944        2.23019550        2.31847204
 C            0.31362445        2.88943827        0.73309151
 C            2.30806342        1.53687955        0.71067946
 C            1.52227867        2.53636357        0.13188978
 C            3.17853862       -0.65855127        0.32214053
 C            3.03000759        0.65349355       -0.10373640
 C            2.30977596       -2.90021886        0.06323007
 C            2.66345762       -1.67560611       -0.49013860
 C            0.39622093       -3.99731917        0.85190288
 C           -0.88414622       -3.41947077        1.21932642
 C            1.05245128       -3.49558360       -0.34474274
 C           -2.27767165       -1.53839482        0.64680484
 C           -1.54370840       -2.66343830        0.26288417
 C           -2.91626456       -0.78797494       -0.34911085
 C           -3.02625540        1.11631610        1.11667502
 C           -2.38953212        2.41201668        1.30185816
 C           -3.12022855        0.58547307       -0.16489632
 C           -0.67726953        3.52675819       -0.01819433
 C           -2.06739269        3.15971949        0.18618522
 C           -0.49277540        3.73769650       -1.44525316
 C            1.81125974        2.97223370       -1.16111780
 C            0.74478670        3.47313937       -2.01110231
 C            3.09820438        0.87834105       -1.46787597
 C            2.67255240        2.15660717       -1.98875976
 C            2.11861754       -1.32757890       -1.72978253
 C            2.57805198       -0.16303496       -2.33243033
 C            0.27453289       -2.82040666       -1.28005583
 C           -1.09712728       -2.74974268       -1.05114606
 C            0.86942357       -1.84695684       -2.09205693
 C           -2.96464804       -1.32375616       -1.63464856
 C           -1.90029264       -2.22045396       -2.04193674
 C           -3.24665881       -0.45975225       -2.76352403
 C           -3.09889763        1.45990178       -1.25948946
 C           -2.59062261        2.74844723       -1.10130264
 C           -1.70904456        3.30070447       -2.11724986
 C           -3.27999962        0.96923785       -2.54762581
 C           -1.63106483        2.67396332       -3.35466599
 C           -2.55283882        1.58645858       -3.64502118
 C            0.82613152        2.78091437       -3.29151988
 C            1.98614189        1.91002095       -3.24347625
 C            1.78688569        0.47370631       -3.36493063
 C           -0.33115277        2.29525799       -3.88602840
 C            0.07475871       -1.19570711       -3.04787943
 C           -1.25352830       -1.60602638       -3.18165494
 C           -2.23875263       -0.72867443       -3.78011863
 C           -1.80279817        0.53721870       -4.31764791
 C            0.51316499       -0.00423449       -3.64705097
 C           -0.40050489        0.88244456       -4.22409993
