   70
C70 / DATE: 7/ 1/2024 / Origin: Program Fullerene / C70 from database
 C            1.39919770        0.04403517        4.56506328
 C            0.64199168       -1.13457705        4.18830898
 C            1.43903402       -1.90861134        3.26670242
 C            2.61392893        0.06044577        3.76876051
 C            2.64334613       -1.14197604        2.97193203
 C            2.67150999        1.32593382        3.08058116
 C            0.61255822        1.20933928        4.19521925
 C            1.43522959        2.04359948        3.35999272
 C           -0.65579911       -0.69816337        3.74126591
 C           -0.64447636        0.75174628        3.65538011
 C           -1.26494223       -1.38046238        2.70521526
 C            0.80447567       -2.56767785        2.21606104
 C           -0.56745153       -2.36775465        1.99127354
 C            1.60524683       -2.96344816        1.15593599
 C            3.07405631       -1.07150599        1.65053016
 C            2.78207272       -2.16764472        0.84219865
 C            3.16821627        1.37332126        1.78074803
 C            3.34191119        0.17740360        1.05950193
 C            2.94119590        2.56224230        1.08800238
 C            0.85115764        2.74101921        2.31183359
 C            1.75012480        3.32101259        1.42931111
 C           -1.14997378        1.34380704        2.49542653
 C           -0.41993020        2.34980261        1.83745114
 C           -2.29336488       -0.72280062        2.06028495
 C           -2.13147096        0.64191982        1.79071020
 C           -3.12501756       -1.49405167        1.27405990
 C           -1.17874464       -2.91631097        0.84792251
 C           -2.53803395       -2.65606553        0.63431013
 C            0.99446807       -3.37226671       -0.08907235
 C           -0.39008394       -3.39809707       -0.20733901
 C            2.88736160       -2.06952254       -0.60184924
 C            1.77292125       -2.80100793       -1.17628726
 C            3.63116829        0.23776735       -0.30636283
 C            3.27509976       -0.87199494       -1.17217590
 C            3.10677228        2.62261026       -0.35274620
 C            3.36866751        1.45615958       -1.04940331
 C            1.26082889        3.95765512        0.23593139
 C            2.11305175        3.54512057       -0.87073686
 C           -0.89146055        2.83715059        0.60500891
 C           -0.10764629        3.71122037       -0.15236560
 C           -2.66979306        1.19460570        0.62786664
 C           -2.00486290        2.24630216       -0.00382475
 C           -4.00054101       -0.83918148        0.33183117
 C           -3.69752601        0.52645377       -0.04024720
 C           -3.11022321       -2.75617287       -0.69826063
 C           -4.03265664       -1.64414856       -0.87647591
 C           -0.90904790       -3.45331470       -1.50167938
 C           -2.30316270       -3.14396261       -1.75422343
 C            1.09198544       -2.29165612       -2.27637652
 C           -0.12001591       -2.89460579       -2.58979230
 C            2.51028658       -0.34198106       -2.29037784
 C            2.54656787        1.10559160       -2.20152225
 C            1.33008553       -0.96943638       -2.67709316
 C            1.23805072        3.11168724       -1.94467543
 C           -0.09395524        3.57305734       -1.59573374
 C            1.39531371        1.83614489       -2.48778676
 C           -2.25927569        2.50879185       -1.35283698
 C           -1.17529717        2.96526711       -2.19883650
 C           -3.78497599        0.60869158       -1.48747997
 C           -3.86552895       -0.74809943       -2.00862122
 C           -3.01571791        1.55423942       -2.14439092
 C           -2.37737327       -2.42155985       -3.01568065
 C           -1.02161208       -2.23477018       -3.50711666
 C           -3.04930967       -1.13314568       -3.06655983
 C            0.29827155       -0.19689759       -3.22481491
 C            0.28703401        1.19101068       -3.04310478
 C           -0.92006179        1.88574107       -3.13089867
 C           -2.16728892        1.15273210       -3.25977242
 C           -0.82539146       -0.82413785       -3.75855905
 C           -2.12117495       -0.17661884       -3.64954112
