   70
C70 / DATE: 7/ 1/2024 / Origin: Program Fullerene / C70 from database
 C            1.37414280        0.16699369        4.75061812
 C            0.61770276       -1.06413447        4.62692995
 C            1.33720950       -1.94350282        3.72220146
 C            2.59671080        0.00490007        3.98600134
 C            2.65995674       -1.37140784        3.52841269
 C            2.64728492        1.05892423        2.98757631
 C            0.59363211        1.21680915        4.11998642
 C            1.36512931        1.74335042        3.01683547
 C           -0.74043275       -0.70417619        4.28044790
 C           -0.72207137        0.68274130        3.83659429
 C           -1.46468880       -1.60611919        3.52221459
 C            0.64813711       -2.49063596        2.63547065
 C           -0.73631372       -2.57383514        2.70583029
 C            1.27575803       -2.57180830        1.38946649
 C            3.31495901       -1.61744831        2.33496637
 C            2.66089664       -2.45806713        1.34975746
 C            3.21632828        0.76404441        1.74972341
 C            3.82991923       -0.48131956        1.59253129
 C            2.74856676        1.43920013        0.61525217
 C            0.72802281        1.98658161        1.81041093
 C            1.50720505        2.08999657        0.67134470
 C           -1.33722139        1.00154131        2.62511993
 C           -0.64398606        1.75507307        1.66832244
 C           -2.51482782       -1.08712652        2.67629659
 C           -2.42287959        0.22714278        2.21629858
 C           -1.49667968       -2.76297825        1.48320764
 C           -2.78305739       -2.13503998        1.71581947
 C            0.52021131       -2.45021654        0.20691354
 C           -0.86843909       -2.57905749        0.25123161
 C            1.12677833       -2.08886543       -1.00081895
 C            3.31934130       -2.19686612        0.08910567
 C            4.09854203       -0.97653382        0.25904729
 C            2.51054495       -2.02859292       -1.09922273
 C            3.32692294        1.16464248       -0.63015142
 C            3.80088647       -0.12117299       -0.86551020
 C            3.09742531       -0.93401689       -1.84197492
 C            2.87576607        1.86443704       -1.74263534
 C            0.92461065        2.57644222       -0.48877843
 C            1.74965316        2.76039289       -1.58635464
 C           -1.23894128        1.97940779        0.42199415
 C           -0.46357590        2.45478246       -0.65031220
 C           -3.09286744        0.55498421        1.03920551
 C           -2.54336032        1.53268637        0.20052001
 C           -3.54478681       -1.79949554        0.61972907
 C           -3.94289952       -0.41451055        0.50174354
 C           -1.64262328       -2.20247100       -0.85491410
 C           -3.02654914       -2.13504776       -0.68902760
 C            0.36451500       -1.48413932       -2.00116137
 C           -1.03345977       -1.56511191       -1.94997821
 C            2.31368109       -0.26557126       -2.76866370
 C            2.58714094        1.08920212       -2.93396021
 C            1.00520556       -0.71435322       -2.98393742
 C            1.16640675        2.93636734       -2.89680451
 C            1.71281339        1.89404205       -3.75799959
 C           -1.06652321        2.73603109       -1.88901724
 C           -0.27195159        2.89618948       -3.02474472
 C           -3.18614686        1.87055594       -0.98678214
 C           -2.40115677        2.38380239       -2.09408516
 C           -4.43061213       -0.27579845       -0.85151063
 C           -3.82282059       -1.36213632       -1.61612675
 C           -4.16110170        0.95729359       -1.55171858
 C           -1.81235027       -0.97904465       -2.96523674
 C           -2.74513744        1.60326876       -3.28226322
 C           -3.17406698       -0.77117887       -2.75865836
 C           -3.67828995        0.58421168       -2.86418139
 C            0.24934629       -0.10632298       -3.98054819
 C            0.60066914        1.23691268       -4.40829306
 C           -0.56060705        2.07100583       -4.18141167
 C           -1.19614064       -0.16180682       -3.91103392
 C           -1.70545626        1.19595341       -4.09931002
