   70
C70 / DATE: 7/ 1/2024 / Origin: Program Fullerene / C70 from database
 C            1.14795509       -0.01893874        4.34433458
 C            2.41182615       -0.25924875        3.68577427
 C            2.39662456       -1.63354015        3.21450569
 C            0.31360502       -1.19601345        4.14590459
 C            1.02577710       -2.09057186        3.26252996
 C           -1.00125629       -0.73854173        3.75148385
 C            0.36679823        1.12962617        3.93695673
 C           -1.02090720        0.70833343        3.88986866
 C            0.83383318        1.97135524        2.93131550
 C            2.77543723        0.57796023        2.55753455
 C            1.88418987        1.54708959        2.10306345
 C            3.06804564       -1.65809379        1.93196085
 C            3.42341658       -0.28691303        1.59166052
 C            2.56123581       -2.46795950        0.92037560
 C            0.43294344       -2.48720503        2.07009896
 C            1.25324469       -2.95835388        1.04239687
 C           -1.62372480       -1.30591270        2.64750582
 C           -0.89656264       -2.13930473        1.78538394
 C           -2.75963108       -0.66407615        2.17148231
 C           -1.90704822        1.44729884        3.10960702
 C           -2.91315785        0.76282437        2.42146333
 C           -0.05708002        2.92623158        2.46011355
 C           -1.48205067        2.69567856        2.65395794
 C            0.11738184        3.46404243        1.12761949
 C            1.89290603        1.88833451        0.74484847
 C            0.97967126        2.82260265        0.25267052
 C            3.42292083        0.07339343        0.24911771
 C            2.77633500        1.25076343       -0.13848483
 C            3.09739174       -2.27453613       -0.34779776
 C            3.58642601       -0.94879312       -0.68400886
 C            2.42725343       -2.81764895       -1.51462269
 C            0.65575032       -3.61424778       -0.02821259
 C            1.28572922       -3.58102637       -1.33836241
 C           -1.45293486       -2.52605587        0.56210948
 C           -0.77464655       -3.45641599       -0.21835897
 C           -3.23743814       -0.94209919        0.83031952
 C           -2.49599167       -1.77860649        0.00402823
 C           -3.55412680        1.35227278        1.25300751
 C           -3.79976976        0.28619066        0.29405282
 C           -2.18637934        3.35560394        1.57024591
 C           -1.18921340        3.86676468        0.64249756
 C           -3.16472032        2.60873099        0.80608277
 C           -1.58031780        3.47132350       -0.69835332
 C           -2.87416490        2.81690856       -0.60410177
 C            0.70999629        2.86454462       -1.11195310
 C           -0.61634949        2.94360551       -1.55368372
 C            2.76343671        1.60322931       -1.48943984
 C            1.70260497        2.46042086       -1.99006456
 C            3.29782095       -0.70660937       -2.08493602
 C            2.46620766       -1.80519488       -2.56338792
 C            3.02491560        0.58653671       -2.49734900
 C            1.33146872       -1.54504608       -3.33907665
 C            0.23690703       -3.50705443       -2.33492021
 C           -1.03920610       -3.50498796       -1.64011021
 C            0.23594506       -2.40014392       -3.27524009
 C           -2.62405315       -1.65967562       -1.38655557
 C           -1.86079632       -2.46514784       -2.22048207
 C           -1.10514131       -1.83707400       -3.29539148
 C           -3.68769461        0.54008604       -1.06499679
 C           -3.18997549        1.82797752       -1.52548813
 C           -3.13099049       -0.48508423       -1.93035318
 C           -1.03109520        2.18737990       -2.65536420
 C           -1.27768564       -0.47381474       -3.54212210
 C           -2.28068831        1.57875107       -2.63255099
 C           -2.38315851        0.17346440       -2.98883129
 C            1.31628982        1.97877026       -3.29945463
 C            2.08575014        0.78122993       -3.58309613
 C            1.15408330       -0.28563131       -3.90293823
 C           -0.08175750        1.68121085       -3.53376142
 C           -0.18241009        0.28903124       -3.95202778
