   70
C70 / DATE: 7/ 1/2024 / Origin: Program Fullerene / C70 from database
 C            1.21107443        0.20867331        4.65668632
 C            2.47419419        0.01469944        3.98215529
 C            2.47364965       -1.33747437        3.44834990
 C            0.38878263       -0.96272453        4.37979252
 C            1.10376603       -1.79075967        3.42967404
 C           -0.93183478       -0.49457850        4.02267959
 C            0.43085251        1.38091463        4.31891333
 C           -0.94392945        0.94711312        4.16577305
 C            0.77757548        2.14304547        3.12870831
 C            2.82674359        0.89646216        2.88173942
 C            1.87621329        1.76934214        2.35646407
 C            3.18172107       -1.29333130        2.19409372
 C            3.59582719        0.08276459        1.96742193
 C            2.67685630       -1.99312485        1.10535493
 C            0.50535693       -2.07902814        2.20312311
 C            1.29625956       -2.26133827        1.05823870
 C           -1.55939024       -1.02209778        2.90439212
 C           -0.87484031       -1.91157505        2.06566654
 C           -2.60506723       -0.28945513        2.36224129
 C           -1.53213801        1.72227583        3.08736685
 C           -0.46512319        2.48977891        2.46678623
 C           -2.44592016        1.09578114        2.24606784
 C           -0.48133748        2.62554340        1.08559737
 C            1.86058969        1.99750422        0.97762817
 C            0.71382549        2.52956045        0.36495688
 C            3.72448034        0.48575903        0.64696205
 C            2.93548449        1.55360230        0.19759435
 C            3.36960739       -1.80146524       -0.08314271
 C            4.04364473       -0.52611836       -0.25137612
 C            2.73719845       -2.11642110       -1.34226346
 C            0.66419838       -2.48981221       -0.17260666
 C            1.37223573       -2.34424994       -1.36994663
 C           -1.50397321       -2.33885836        0.89380660
 C           -0.72504984       -2.65814015       -0.22301445
 C           -3.43452305       -0.94687242        1.46960894
 C           -2.86657628       -2.06573150        0.73917591
 C           -4.20947588       -0.15449026        0.53669887
 C           -2.70279276        1.69401792        1.01325037
 C           -1.69452431        2.46111332        0.41991966
 C           -3.74083122        1.18292408        0.23834599
 C           -1.75769532        2.77797251       -0.92939658
 C            0.70213974        2.78694175       -1.01232050
 C           -0.51988174        2.89404018       -1.67657482
 C            3.00525976        1.93974842       -1.13889857
 C            1.82501406        2.48792433       -1.77834247
 C            4.10606082       -0.23229135       -1.66468651
 C            3.31240475       -1.23962749       -2.35075026
 C            3.65492317        1.06846474       -2.10519815
 C            1.63737978        1.79245943       -3.04591537
 C            2.41509344       -0.55217607       -3.26297288
 C            2.73230988        0.85941843       -3.20695843
 C            0.67973447       -2.03269857       -2.53387241
 C            1.07539681       -0.91928585       -3.27775165
 C           -1.33499521       -2.86752818       -1.46322254
 C           -0.61341889       -2.50485355       -2.67002306
 C           -3.47877297       -2.08919684       -0.57790645
 C           -4.29681322       -0.89269247       -0.70938562
 C           -2.73023518       -2.51326477       -1.66258957
 C           -3.71136707        1.32839034       -1.20708170
 C           -2.73928694        2.13135022       -1.78373500
 C           -4.03128521        0.03549636       -1.79649060
 C           -0.69373775        2.18091475       -2.93199272
 C            0.35164309        1.38630625       -3.38760695
 C            0.11609939        0.02916411       -3.64601488
 C           -2.06078162        1.69539200       -2.99389444
 C           -1.52028375       -1.77840090       -3.53746830
 C           -2.83117109       -1.78208876       -2.91670271
 C           -3.32522727       -0.41481729       -2.90586353
 C           -1.18351261       -0.41005445       -3.88752313
 C           -2.30780341        0.43176444       -3.51174444
