   70
C70 / DATE: 7/ 1/2024 / Origin: Program Fullerene / C70 from database
 C            1.64992031       -0.10431665        5.28247566
 C            0.83395694       -1.30508580        5.21887644
 C            1.65682446       -2.34016019        4.63654262
 C            2.74856216       -0.28125456        4.34910481
 C            2.82092679       -1.68950073        4.04122642
 C            2.56231914        0.65881890        3.25780187
 C            0.83777103        0.99382444        4.79664230
 C            1.49701389        1.56759649        3.63555801
 C           -0.41729539       -0.94956042        4.56471647
 C           -0.51456509        0.49889563        4.62597595
 C           -0.81949774       -1.61810463        3.39911610
 C            1.06794198       -3.18918645        3.62176605
 C           -0.21602893       -2.81988485        3.04254948
 C            2.87088843       -2.08833318        2.65070972
 C            2.01400350       -3.24461005        2.52666752
 C            2.61862420        0.22353330        1.93441811
 C            2.81692916       -1.13106246        1.63522861
 C            2.08469510        1.05630023        0.94605364
 C            0.69295002        2.08892161        2.62823183
 C            1.13344763        2.01561373        1.30547607
 C           -1.30082582        1.13611574        3.68620333
 C           -0.67781919        2.15375250        2.85740427
 C           -1.63257901       -0.95897279        2.47042010
 C           -2.07692612        0.32247900        2.77177501
 C           -1.72932601       -1.42366206        1.14741811
 C           -0.15560882       -3.18218614        1.63949352
 C            1.24463585       -3.36327155        1.31171305
 C           -0.93612437       -2.48986422        0.71396011
 C            2.50314669       -1.56609166        0.34889520
 C            1.69135416       -2.69849089        0.18783176
 C            2.21223689        0.68948182       -0.39838634
 C            2.53771412       -0.63795862       -0.69196727
 C            1.66116370        1.51588590       -1.39310788
 C            0.35070692        2.58802254        0.30612183
 C            0.82106473        2.56869273       -1.00394411
 C           -1.55923842        2.33790300        1.72604329
 C           -2.45959144        1.20397035        1.69213575
 C           -1.02553355        2.73832821        0.51358068
 C           -2.40560870       -0.66265576        0.18349802
 C           -2.73784869        0.67225404        0.44551441
 C           -2.39515319       -1.09060616       -1.14831802
 C           -0.52897924       -2.51262623       -0.62630768
 C            0.83132788       -2.70412223       -0.89467927
 C           -1.34180391       -1.90247840       -1.58723881
 C            2.28984377       -1.12533234       -1.96768046
 C            1.35511009       -2.22630056       -2.07741071
 C            1.72864095        1.12292015       -2.74115753
 C            1.99645946       -0.20479199       -3.04305983
 C            1.15759349        1.91321676       -3.73805314
 C            0.04670382        3.22275302       -1.95593247
 C            0.32854310        3.03235878       -3.35899516
 C           -1.86202397        2.64008203       -0.59417576
 C           -2.76104698        1.56549185       -0.62486841
 C           -1.39063375        3.18767022       -1.77903234
 C           -3.11661895       -0.33950021       -2.07371458
 C           -3.23463317        1.08518887       -1.83746582
 C           -2.88660133       -0.53599776       -3.48958676
 C           -0.89466525       -1.82720138       -2.91627631
 C            0.46494489       -1.93695870       -3.17291104
 C            1.12017979       -0.91256492       -3.96336870
 C           -1.69642309       -1.24743519       -3.89469557
 C            0.51489966        1.26389913       -4.87396980
 C            0.35868969       -0.18021900       -4.85986714
 C           -1.06240682       -0.47653584       -4.95746754
 C           -0.94376310        2.90545784       -4.05510073
 C           -1.98796896        2.81272759       -3.04549432
 C           -2.91028602        1.77374425       -3.07336318
 C           -2.86543625        0.77235602       -4.12741544
 C           -0.80186774        1.85649768       -5.04744947
 C           -1.77700535        0.78213019       -5.08868453
