   70
C70 / DATE: 7/ 1/2024 / Origin: Program Fullerene / C70 from database
 C            1.16575934       -0.09893853        4.63858665
 C            2.40904929       -0.41301349        3.97695312
 C            2.26624664       -1.73672848        3.38534189
 C            0.30988734       -1.26850401        4.51714906
 C            0.86310419       -2.08031926        3.45279958
 C           -1.04507104       -0.78846803        4.38108066
 C            0.39658656        1.03086828        4.16008569
 C           -0.98914672        0.66642291        4.34519117
 C            0.76008130        1.66395552        2.97117429
 C            2.87239379        0.46247624        2.92031393
 C            2.03727599        1.46379209        2.41922933
 C            2.90092360       -1.68800235        2.08380102
 C            3.55725895       -0.39802360        1.98002146
 C            2.21655725       -2.16312477        0.97084286
 C            0.15588816       -2.22902777        2.25975507
 C            0.85400012       -2.48331235        1.07504248
 C           -1.81566664       -1.20553568        3.22707400
 C           -1.21258816       -1.93334353        2.20267850
 C           -1.94692742        1.10597655        3.35304968
 C           -2.64003122       -0.07477043        2.86305685
 C           -0.21411986        2.36066188        2.24463572
 C           -1.57568075        2.07362798        2.42644484
 C            0.18599572        3.16590649        1.18371600
 C            2.35183986        2.02495205        1.17702957
 C            1.50713765        2.97394644        0.61662540
 C            3.81504744        0.09747949        0.71370173
 C            3.31003731        1.41635584        0.36742133
 C            2.75550059       -1.88353912       -0.28385838
 C            3.56571295       -0.76117403       -0.43292981
 C            2.14958452       -2.42187319       -1.40866371
 C            0.14077726       -2.82282739       -0.07430873
 C            0.83936892       -3.02252032       -1.26293090
 C           -1.86140400       -1.97479934        0.96826198
 C           -1.23829099       -2.61324399       -0.10689542
 C           -3.16431602       -0.03637685        1.57864950
 C           -2.96700959       -1.13839848        0.74800459
 C           -2.46911334        2.29986484        1.38277376
 C           -3.35020820        1.21319096        0.99078733
 C           -0.73390057        3.43658806        0.09142627
 C           -2.03394928        2.97589867        0.17398904
 C            1.39506644        3.07307828       -0.83289161
 C           -0.00741336        3.28156617       -1.15465846
 C            3.15839141        1.45567791       -1.07987053
 C            3.37199833        0.10495003       -1.58234517
 C            2.16577859        2.24773206       -1.65156507
 C            2.15216837       -1.66446372       -2.65222354
 C            2.61349560       -0.34580514       -2.65656312
 C            0.15610529       -2.90711082       -2.54035591
 C            0.95330839       -2.03619132       -3.39287059
 C           -1.94183424       -2.81459211       -1.29189420
 C           -1.22798158       -2.81754706       -2.55703303
 C           -3.58849020       -1.13188480       -0.49542374
 C           -3.18065459       -2.09620790       -1.49663720
 C           -3.56170392        1.30698875       -0.44491025
 C           -2.61341874        2.27862487       -0.96314009
 C           -3.78613115        0.14412467       -1.16324921
 C           -0.56726046        2.57446881       -2.21502751
 C           -1.81196183        1.94506225       -2.05575867
 C            1.68011503        1.90728129       -2.91366454
 C            2.00342076        0.60301784       -3.47097628
 C            0.28890981        2.18281127       -3.23594367
 C            0.32745309       -1.10328158       -4.20919913
 C            0.91451476        0.21527193       -4.34964189
 C           -0.14852074        1.19730832       -4.19878024
 C           -1.88168958       -1.86130048       -3.44016655
 C           -3.08112687       -1.39609481       -2.76684499
 C           -3.21805500        0.02357777       -2.49201356
 C           -2.20007106        0.88730940       -2.89404028
 C           -1.11438085       -0.93466809       -4.13595819
 C           -1.37862260        0.48419692       -3.94346017
