   70
C70 / DATE: 7/ 1/2024 / Origin: Program Fullerene / C70 from database
 C            1.56498256        0.05228847        4.72505712
 C            0.77912138       -1.14397577        4.48264139
 C            1.49501781       -1.95989596        3.51602111
 C            2.69751597        0.02440208        3.81761763
 C            2.76457149       -1.30116238        3.24108640
 C            2.58812915        1.15765534        2.91433115
 C            0.74589501        1.19365152        4.36743754
 C            1.44446708        1.94592935        3.34090282
 C           -0.57828049       -0.73276292        4.17503563
 C           -0.59166039        0.71787216        4.06305482
 C           -1.29628679       -1.47877251        3.25635419
 C            0.78481645       -2.54732744        2.46570169
 C           -0.60852183       -2.49895705        2.47685632
 C            1.45005848       -2.86531270        1.27761155
 C            3.29862232       -1.42156974        1.97195010
 C            2.77030562       -2.44978614        1.10697046
 C            2.80456715        0.95284896        1.54821726
 C            3.42402690       -0.22587514        1.14390732
 C            2.07645792        1.70753685        0.62031831
 C            0.68253992        2.56386447        2.36448132
 C            1.24362009        2.71777344        1.10178600
 C           -1.26263651        1.32389314        3.00261244
 C           -0.70607323        2.48231266        2.46261396
 C           -2.21728055       -0.80046628        2.36292795
 C           -2.15875132        0.58283603        2.22284359
 C           -1.33706637       -2.65534123        1.23220273
 C           -2.34995815       -1.61687947        1.17177665
 C            0.72261875       -3.25939134        0.14944956
 C           -0.64455864       -2.96886365        0.07475429
 C            1.42812934       -3.51066000       -1.02774326
 C            3.22755454       -2.10375443       -0.22142446
 C            3.31788686       -0.65312851       -0.23997408
 C            2.62474997       -2.73018212       -1.29143076
 C            1.92684512        1.25984225       -0.70396953
 C            2.51051135        0.06259983       -1.12106888
 C            1.12331446        1.97395079       -1.59508897
 C            0.59095589        3.54959560        0.20509070
 C            0.59045417        3.19973248       -1.20268917
 C           -1.46284490        3.21577251        1.56242000
 C           -0.75221928        3.97725239        0.55153792
 C           -2.68783781        1.16197254        1.06619433
 C           -2.56225403        2.54021433        0.90029012
 C           -2.59431085       -0.98749875       -0.04211768
 C           -2.97467878        0.35319006       -0.04089899
 C           -1.22080825       -2.63931964       -1.15248124
 C           -2.13536882       -1.57630360       -1.22559224
 C            0.70669902       -3.59666253       -2.28541809
 C           -0.68056229       -3.18632970       -2.30920137
 C            2.31620532       -1.93024123       -2.45586599
 C            2.04839435       -0.56824166       -2.28126838
 C            1.41359160       -2.74865762       -3.23465430
 C            0.66941008        1.36256569       -2.76753504
 C            1.11443220        0.07979522       -3.10222903
 C           -0.42661262        1.90084573       -3.45103013
 C           -0.67112604        3.65319697       -1.76668636
 C           -1.55209051        3.97332056       -0.65618658
 C           -2.71639893        3.13467293       -0.41692161
 C           -1.20157905        2.97086533       -2.84830766
 C           -3.38911902        0.92930455       -1.23491553
 C           -3.19048542        2.35305701       -1.45797714
 C           -2.57909800        2.50809715       -2.76646012
 C           -2.46471958       -0.99703778       -2.46135851
 C           -1.37600385        1.00442145       -4.09022544
 C           -3.11322239        0.23680835       -2.48281957
 C           -2.65379030        1.22832123       -3.44187598
 C           -0.88626178       -2.51408593       -3.57098235
 C            0.42327892       -2.08933461       -4.04654155
 C            0.39995616       -0.64237044       -4.06384011
 C           -1.73883650       -1.34569490       -3.59890970
 C           -0.98840012       -0.30641627       -4.28636454
