   70
C70 / DATE: 7/ 1/2024 / Origin: Program Fullerene / C70 from database
 C            1.52946691        0.21127643        4.97400328
 C            0.72325864       -0.99302591        5.02188213
 C            1.49146188       -2.05176806        4.39710617
 C            2.64448783       -0.03753684        4.07137609
 C            2.64863834       -1.44342699        3.75344321
 C            2.55006245        0.91385603        2.98244790
 C            0.71731847        1.25998830        4.38551870
 C            1.47930169        1.83761425        3.30408464
 C           -0.59313678       -0.67538516        4.49004366
 C           -0.58447751        0.71454127        4.06118864
 C           -1.24926876       -1.61178008        3.70507163
 C            0.83725312       -2.89529320        3.41434275
 C           -0.53702000       -2.79715619        3.23889203
 C            2.62979548       -1.83582042        2.35833399
 C            1.68556771       -2.92976157        2.23579625
 C            2.67083270        0.49408206        1.65118237
 C            2.67171739       -0.87549387        1.34204574
 C            2.28669941        1.40772736        0.66196469
 C            0.78931165        2.36492599        2.23088488
 C            1.50148425        2.49450390        1.05460856
 C           -1.14839797        1.06659866        2.83292502
 C           -0.58502879        2.12802865        2.11732799
 C           -2.08468891       -1.14756420        2.61167871
 C           -1.96336029        0.15867996        2.15299697
 C           -1.09185461       -3.15349701        1.94723366
 C           -2.16556773       -2.22201494        1.64404333
 C            1.10844134       -3.14485119        0.99227727
 C           -0.23816315       -3.52205869        0.91445226
 C            2.31286402       -1.28337994        0.05460779
 C            1.70230160       -2.53043488       -0.10892938
 C            2.27861394        1.01247430       -0.67861123
 C            2.28305727       -0.35195014       -0.98716663
 C            1.95630545        1.95217742       -1.66189592
 C            0.93581878        3.30547214        0.09279048
 C            1.31754186        3.12965403       -1.28786575
 C           -1.22091235        2.57045495        0.95194305
 C           -0.50641698        3.44312248        0.12922928
 C           -2.35138996        0.45216922        0.84793680
 C           -2.20686676        1.75904721        0.38325752
 C           -2.40842644       -1.91666735        0.30893005
 C           -2.59674291       -0.58367941       -0.06536927
 C           -0.81186193       -3.65495524       -0.34497415
 C           -1.97087156       -2.82726939       -0.65109254
 C            1.32834747       -2.95144318       -1.37403660
 C            0.05633856       -3.62962906       -1.50430872
 C            2.02893234       -0.78472590       -2.29597097
 C            1.46004292       -2.04105959       -2.49266952
 C            1.92502522        1.56458342       -2.99426334
 C            1.84974507        0.15413731       -3.30848562
 C            1.05412784        2.27086425       -3.92694727
 C            0.21995028        3.64561823       -2.08973001
 C           -0.95563533        3.70343774       -1.22600535
 C            0.10177486        3.23849853       -3.41199519
 C           -2.75720920        2.09416126       -0.85336669
 C           -2.15741053        3.15465127       -1.64562802
 C           -2.75597243       -0.27568109       -1.41624901
 C           -3.11598627        1.02010751       -1.76100479
 C           -1.87211612       -2.41196530       -2.04105940
 C           -0.67361507       -3.00445981       -2.59100412
 C            0.24525086       -2.13489458       -3.29120957
 C           -2.16025563       -1.09620985       -2.37584068
 C            0.72009265       -0.02415771       -4.20534805
 C            0.31140283        1.27764767       -4.68527603
 C           -0.24108913       -0.96320078       -3.85404117
 C           -1.52090867       -0.51994442       -3.48113450
 C           -1.20735758        2.90241734       -3.94786998
 C           -2.34411202        2.82783505       -3.04780621
 C           -2.87966833        1.47812649       -3.11853568
 C           -1.09351261        1.61958063       -4.62176239
 C           -2.00333072        0.69408065       -3.96839376
