   70
C70 / DATE: 7/ 1/2024 / Origin: Program Fullerene / C70 from database
 C            1.25034286        0.19394079        4.65825682
 C            2.48231605       -0.00800579        3.92431874
 C            2.51446478       -1.39688842        3.50091952
 C            0.42231457       -0.98718943        4.46569054
 C            1.18914025       -1.94726664        3.68749298
 C           -0.86491928       -0.54922374        3.95053961
 C            0.44189771        1.34959151        4.33732604
 C           -0.91325060        0.88760501        4.07514188
 C            0.82358273        2.18871877        3.21572884
 C            2.75604962        0.81189515        2.75297907
 C            1.86111679        1.80381788        2.36459420
 C            3.08211452       -1.43527577        2.16888831
 C            3.31204359       -0.06122194        1.74047718
 C            2.56701867       -2.33433422        1.24035123
 C            0.57796205       -2.56286586        2.60126033
 C            1.36615245       -2.99616421        1.52938822
 C           -1.34323992       -1.14083436        2.78852952
 C           -0.78631194       -2.35229680        2.39858335
 C           -2.07099156       -0.39164763        1.85152355
 C           -1.42313716        1.65654147        2.95900993
 C           -0.41654808        2.64567484        2.62526085
 C           -2.07140480        1.00906552        1.90801421
 C           -0.39203468        3.09938961        1.32101680
 C            1.79632191        2.18056115        1.02166146
 C            0.82608990        3.10932821        0.64614431
 C            3.13591878        0.25003067        0.39542718
 C            2.40273064        1.38650264        0.03590217
 C            2.93363846       -2.13866864       -0.08709785
 C            3.25660919       -0.78862730       -0.51975796
 C            2.19743538       -2.79190046       -1.15565432
 C            0.77336293       -3.79914900        0.55698539
 C            1.14456622       -3.62951204       -0.83865742
 C           -1.44650311       -3.09901085        1.43932998
 C           -0.66447439       -3.99179054        0.60638734
 C           -2.55927583       -1.03476076        0.70814322
 C           -2.40909801       -2.42081067        0.59064954
 C           -2.93020754       -0.28216609       -0.41077307
 C           -2.26521537        1.73764944        0.73217356
 C           -1.54539086        2.92879468        0.56987872
 C           -2.84151609        1.11106265       -0.37473601
 C           -1.64157064        3.65172483       -0.60944118
 C            0.84710301        3.61234578       -0.64915176
 C           -0.40175013        4.10231645       -1.21448605
 C            2.13547963        1.63927677       -1.31710608
 C            1.52301999        2.83964647       -1.67502026
 C            2.75219520       -0.61987500       -1.86635181
 C            2.04486583       -1.83639989       -2.23785579
 C            2.22248253        0.60263794       -2.25345888
 C            0.83534527       -1.72953604       -2.92332560
 C           -0.07511969       -3.55991191       -1.62540436
 C           -1.17968304       -3.90395448       -0.74728431
 C           -2.34343231       -3.03744884       -0.72549923
 C           -0.25156376       -2.53397450       -2.55435318
 C           -3.12380363       -0.92154011       -1.63603843
 C           -2.58996796       -2.25169974       -1.83589249
 C           -1.55548928       -2.13194641       -2.85302128
 C           -2.87649548       -0.19498614       -2.86726269
 C           -1.79604778       -0.88592843       -3.55974960
 C           -3.06413536        1.84023833       -1.54342454
 C           -2.50520837        3.17106771       -1.66446577
 C           -2.89529203        1.18936258       -2.82967746
 C           -0.43473661        3.74440226       -2.61999133
 C            0.72110867        2.90870173       -2.88829886
 C           -1.76075256        3.23263904       -2.91435109
 C           -1.89037141        1.94091577       -3.56379183
 C            1.39798408        0.61188762       -3.37514656
 C            0.62972138       -0.58268133       -3.68926041
 C           -0.71532861       -0.16574267       -4.04380533
 C            0.57528477        1.76907626       -3.66632545
 C           -0.75351257        1.28882713       -4.03205633
