   70
C70 / DATE: 7/ 1/2024 / Origin: Program Fullerene / C70 from database
 C            1.58653645        0.08106179        4.46104988
 C            0.79999598       -1.12070659        4.27160928
 C            1.59910241       -2.02931903        3.48098008
 C            2.66205550        0.05743130        3.48122595
 C            2.65133961       -1.24067817        2.85472422
 C            2.51588991        1.22091824        2.63815621
 C            0.73691068        1.20891539        4.14174774
 C            1.46679015        2.04353848        3.21334624
 C           -0.49230884       -0.74128139        3.73996064
 C           -0.55189993        0.70747726        3.70520092
 C           -0.97254905       -1.46486540        2.65938310
 C            0.94424457       -2.94000015        2.66706541
 C           -0.41681870       -2.71985124        2.39698631
 C            1.72940729       -3.50181726        1.66968171
 C            2.79937151       -1.33577178        1.47175336
 C            2.60370697       -2.60482250        0.93417080
 C            2.54854907        1.07967954        1.24840264
 C            2.53611992       -0.20418096        0.67583209
 C            2.09973571        2.16422631        0.49210574
 C            0.73063868        2.80393410        2.32591167
 C            1.36447471        3.15928813        1.14782389
 C           -1.13979499        1.34136255        2.61710828
 C           -0.64936962        2.59783115        2.26723587
 C           -1.70756459       -0.81638725        1.66141707
 C           -1.78877840        0.58132850        1.63669723
 C           -2.21620803       -1.56127959        0.59475123
 C           -1.07895152       -3.54828765        1.49779330
 C           -2.05363657       -2.95140967        0.59752904
 C            1.12482615       -4.41322892        0.72807178
 C           -0.31678325       -4.52688084        0.73955613
 C            2.26435852       -2.74637763       -0.46490560
 C            1.53211432       -3.98828061       -0.60256589
 C            2.09838260       -0.36279478       -0.65137202
 C            1.82130763       -1.63197166       -1.15647506
 C            1.98977302        2.03082957       -0.89060395
 C            1.82275826        0.75480563       -1.43984000
 C            1.71894429        3.16603554       -1.64823747
 C            0.77602715        4.17637323        0.41394977
 C            1.08576585        4.29408535       -0.99427865
 C           -1.37038741        3.33885482        1.34136433
 C           -0.65590460        4.34756248        0.57352803
 C           -2.28373993        1.22364950        0.49552461
 C           -2.23349996        2.61637121        0.42157898
 C           -2.62381433       -0.91139486       -0.57528050
 C           -2.51821439        0.48315204       -0.66660642
 C           -2.86415772       -1.66869655       -1.71973810
 C           -1.98585836       -3.67512988       -0.66393715
 C           -0.76286362       -4.45958964       -0.63558573
 C            0.35638998       -4.00089738       -1.44394286
 C           -2.26109825       -2.98045181       -1.82757697
 C            0.91288996       -1.77765088       -2.20957469
 C            0.12403334       -2.93942992       -2.30950925
 C           -1.17694269       -2.82375938       -2.78104922
 C            1.18330221        0.58002823       -2.67806039
 C            0.60486898       -0.65639467       -2.98782224
 C            1.08730710        3.02332891       -2.93875456
 C            0.76639559        1.69197247       -3.40984703
 C           -0.15841485        4.57377271       -1.69400668
 C           -1.24388962        4.40120028       -0.74881391
 C           -2.12486922        3.25070750       -0.88057790
 C           -0.16372595        3.76983367       -2.89378842
 C           -2.49570522        1.12303777       -1.92047298
 C           -0.61300574        1.74071764       -3.85953958
 C           -2.05063548        2.44195252       -2.00830642
 C           -1.22307007        2.79797876       -3.08060093
 C           -2.67701136       -1.05968525       -3.01671691
 C           -1.51737310       -1.70464322       -3.61961839
 C           -0.52569265       -0.67284968       -3.80884825
 C           -2.43766465        0.36273459       -3.08311327
 C           -1.29211142        0.54478909       -3.95325612
