   70
C70 / DATE: 7/ 1/2024 / Origin: Program Fullerene / C70 from database
 C            1.37095921        0.01799966        4.70079748
 C            2.53692972       -0.09252869        3.84964169
 C            2.52882067       -1.41995705        3.25796301
 C            0.53599874       -1.14845063        4.46311821
 C            1.24858186       -2.03318866        3.55500153
 C           -0.78334021       -0.68088683        4.07255261
 C            0.53198642        1.18995220        4.57272831
 C           -0.82981020        0.74264049        4.31179346
 C            0.84710239        2.18230611        3.56026671
 C            2.72487141        0.86506363        2.77194105
 C            1.84360758        1.93534212        2.60910948
 C            2.91893340       -1.28999199        1.86401028
 C            3.14086704        0.11950258        1.59863740
 C            2.24742840       -2.04501046        0.90753182
 C            0.54464682       -2.61047714        2.50479978
 C            1.23171889       -2.90521732        1.32701690
 C           -1.33693579       -1.19420688        2.90687055
 C           -0.83219743       -2.39823518        2.43428869
 C           -2.02998436       -0.35984717        2.01789590
 C           -1.37473758        1.60070918        3.27917085
 C           -0.43390565        2.69387109        3.11366588
 C           -1.94788286        1.03240770        2.14099102
 C           -0.47359151        3.40730837        1.93267559
 C            1.73839041        2.53565898        1.35038278
 C            0.74183909        3.49098819        1.14689023
 C            2.80713742        0.61722631        0.34909572
 C            2.34660497        1.92690755        0.24618402
 C            2.26126737       -1.61026755       -0.41940028
 C            2.57225662       -0.27232361       -0.69990452
 C            1.70141020       -2.42529848       -1.40694642
 C            0.59022151       -3.69404123        0.38147126
 C            0.83342820       -3.44550570       -1.02879922
 C           -1.55658053       -3.06955839        1.46388663
 C           -0.83178188       -3.92871004        0.54819719
 C           -2.55630273       -0.91719482        0.84722779
 C           -2.51271234       -2.30487833        0.68442345
 C           -2.82133175       -0.09883399       -0.25526465
 C           -2.11349324        1.83458577        1.01049889
 C           -1.52822467        3.10221893        0.98797968
 C           -2.57730050        1.27412194       -0.18034792
 C            0.33747019        3.84087783       -0.20528647
 C           -1.10819162        3.67172517       -0.27835554
 C            2.19341135        2.47629864       -1.02230734
 C            1.13008456        3.43561475       -1.26758172
 C            2.43227694        0.22921939       -1.99454601
 C            2.28046233        1.60309642       -2.18123864
 C            1.63138111       -1.96689932       -2.71746913
 C            2.10807037       -0.63555762       -3.03246622
 C            0.40326220       -2.18624647       -3.46719291
 C           -0.43013471       -3.58878761       -1.73803267
 C           -1.46608065       -3.83264742       -0.75301731
 C           -2.55942291       -2.88848265       -0.64782642
 C           -0.69119260       -2.73550506       -2.80568826
 C           -3.14479980       -0.67623130       -1.48437352
 C           -2.82203177       -2.06754870       -1.72919082
 C           -1.94034719       -2.10751788       -2.89057780
 C           -2.87215434        0.04496574       -2.71498647
 C           -2.08165511       -0.82657595       -3.57332552
 C           -2.57358990        2.04482214       -1.34558790
 C           -1.68675142        3.18936166       -1.44081023
 C           -2.58129364        1.39750146       -2.64488139
 C            0.51213292        3.10266821       -2.54139815
 C            1.34453651        2.09824638       -3.18109289
 C           -0.87273597        3.01130251       -2.63281697
 C           -1.47724702        1.94645810       -3.41944236
 C            1.32146061       -0.13973375       -4.14999364
 C            0.21872475       -1.06151061       -4.36446644
 C           -1.01655157       -0.30747600       -4.29913508
 C            0.77787566        1.20338637       -4.07926546
 C           -0.67186440        1.10097491       -4.17568950
