   70
C70 / DATE: 7/ 1/2024 / Origin: Program Fullerene / C70 from database
 C            1.36286395       -0.12411207        4.20085523
 C            2.56132591       -0.19815294        3.38165992
 C            2.44312372       -1.36775795        2.52485342
 C            0.53639390       -1.27744158        3.88525450
 C            1.15075300       -1.97841857        2.78458966
 C           -0.82361203       -0.82267213        3.72462981
 C            0.52295337        1.06194195        4.13299266
 C           -0.83670027        0.62173068        3.88700059
 C            0.99260065        2.19193366        3.48029940
 C            3.09622824        0.96991853        2.86026471
 C            2.37012421        2.22084952        3.01942202
 C            3.65500014        0.95343985        1.52213288
 C            2.89908620       -1.31576963        1.20873381
 C            3.67727589       -0.22757697        0.78439654
 C            2.29582993       -2.15537794        0.26359431
 C            0.37134520       -2.35523246        1.69912445
 C            1.02544313       -2.68296868        0.51760682
 C           -1.61514404       -1.36683206        2.71804908
 C           -1.00946781       -2.08768264        1.67569739
 C           -2.81287390       -0.70909807        2.46830346
 C           -1.66733982        1.35707884        3.04826035
 C           -2.84975456        0.73357241        2.66637933
 C            0.16696692        2.81085047        2.45434248
 C           -1.09282237        2.29194727        2.17526676
 C            2.39700330        2.92092613        1.74633985
 C            3.24643431        2.17415063        0.84472335
 C            1.03101067        3.16909959        1.34239582
 C            2.89550527        2.08287902       -0.49790994
 C            3.98224024       -0.10140938       -0.56777746
 C            3.55683014        1.11207535       -1.24703694
 C            2.84215054       -2.25701354       -1.01161174
 C            3.74148310       -1.21744392       -1.45710517
 C            1.98216702       -2.58880606       -2.13316636
 C            0.30031184       -3.28412887       -0.50093422
 C            0.74449651       -3.15262109       -1.87907281
 C           -1.75213656       -2.41979418        0.53001292
 C           -1.14592250       -3.16268398       -0.48308848
 C           -3.56418232       -1.01372751        1.26984186
 C           -2.99870079       -1.82683557        0.29507819
 C           -3.62221544        1.30638356        1.58570947
 C           -4.22773237        0.20944998        0.85586816
 C           -1.58805430        2.42096234        0.87396875
 C           -2.92451375        2.13722443        0.63078704
 C            0.64603256        2.82219046        0.05178161
 C            1.62106545        2.50691139       -0.90123148
 C           -0.69523442        2.51807710       -0.19687759
 C            1.22819393        2.32440458       -2.22228567
 C            3.06901001        0.74587642       -2.56464686
 C            3.22247800       -0.69054719       -2.70999622
 C            2.06620272       -1.48998892       -3.07937528
 C            1.91957534        1.34812817       -3.04927368
 C            0.89632873       -0.85366297       -3.49007741
 C            0.90410014        0.52842358       -3.68992926
 C           -0.39903411       -2.71426934       -2.65695585
 C           -1.58218749       -2.99858858       -1.85960043
 C           -0.32324370       -1.52963459       -3.39261870
 C           -3.49633185       -1.73613798       -1.00861514
 C           -2.75271792       -2.30682686       -2.11851138
 C           -4.20482475        0.55424167       -0.54978466
 C           -3.33262745        1.71640598       -0.69657689
 C           -4.08475269       -0.48161740       -1.46269193
 C           -1.12416230        2.25826785       -1.50353467
 C           -0.18901248        2.23770955       -2.53575459
 C           -0.33926240        1.27154250       -3.61091188
 C           -2.40679724        1.75133035       -1.73696171
 C           -1.50012261       -0.87039353       -3.74159300
 C           -2.76581553       -1.34199258       -3.20330628
 C           -3.51583059       -0.17937851       -2.75933690
 C           -1.53323663        0.58269673       -3.72048101
 C           -2.64356717        0.97397569       -2.87158501
