   70
C70 / DATE: 7/ 1/2024 / Origin: Program Fullerene / C70 from database
 C            1.29825449       -0.03737577        4.37045597
 C            2.59794887       -0.35080908        3.82236497
 C            2.55684007       -1.72243307        3.34302607
 C            0.45612463       -1.21501736        4.21317583
 C            1.17107266       -2.15612227        3.38073752
 C           -0.84397051       -0.75615579        3.77751574
 C            0.56354420        1.08407011        3.81730004
 C           -0.83238002        0.69285418        3.84786189
 C            1.05633683        1.74950196        2.69144958
 C            3.10780302        0.46849339        2.74372054
 C            2.39911392        1.59063798        2.31510171
 C            3.26685049       -1.77465237        2.07574706
 C            3.66867253       -0.41863308        1.73811785
 C            2.76719997       -2.58927235        1.07594299
 C            0.58341953       -2.61795505        2.20599128
 C            1.41676364       -3.11888489        1.20939348
 C           -1.45258598       -1.35538469        2.68107290
 C           -0.72968026       -2.25404152        1.87938076
 C           -2.58633396       -0.73503087        2.15604074
 C           -1.72739435        1.38672811        3.05295623
 C           -2.74600576        0.63690297        2.33598957
 C            0.15027104        2.38003895        1.82627278
 C           -1.20528873        2.37397317        2.12506910
 C            0.56774049        2.83941949        0.57924517
 C            2.85010062        2.19893913        1.14938614
 C            1.92923186        2.98951782        0.35864174
 C            3.66251434        0.01529810        0.41255275
 C            3.62516413        1.39211526        0.21873891
 C            2.92750243       -2.17738577       -0.30342841
 C            3.19546933       -0.84049138       -0.60049741
 C            0.89498373       -3.32237097       -0.12967254
 C            1.92100112       -2.89114754       -1.06532215
 C           -1.28001657       -2.68387151        0.66841155
 C           -0.43740768       -3.02735831       -0.39510980
 C           -3.27356817       -1.35455249        1.12230142
 C           -2.63015285       -2.45500355        0.43239233
 C           -3.93943062       -0.53484804        0.11966231
 C           -3.16210289        1.45487359        1.21045753
 C           -2.16265923        2.50204247        1.04481210
 C           -3.69249287        0.83824235        0.08032636
 C           -0.34238455        2.90460576       -0.49296658
 C           -1.72250925        2.80927908       -0.23691034
 C            0.12846543        2.98177757       -1.81867576
 C            2.42979337        2.98998554       -0.99613425
 C            3.41015003        1.92123949       -1.10636917
 C            1.48278330        2.82684274       -2.07124027
 C            2.84028060       -0.33678611       -1.86335773
 C            2.96478176        1.01843613       -2.14284220
 C            1.90194524        1.68897255       -2.87458327
 C            1.53428590       -2.38606342       -2.29235046
 C            2.06649927       -1.10703830       -2.72849609
 C           -0.82741906       -2.78356663       -1.71783746
 C            0.13080414       -2.42669898       -2.66063457
 C           -3.12016113       -2.46755681       -0.93003324
 C           -3.96599892       -1.29948628       -1.11385212
 C           -2.15464175       -2.49548804       -2.00688604
 C           -3.57504482       -0.65018925       -2.34821561
 C           -2.45181545       -1.39185365       -2.90872015
 C           -3.57764961        1.49232612       -1.14818431
 C           -2.61374549        2.57455146       -1.27955422
 C           -3.56562444        0.73392088       -2.39390678
 C           -0.71385749        2.63236032       -2.86331191
 C           -2.13716181        2.57969435       -2.64147709
 C           -2.64723157        1.38979935       -3.30222084
 C            0.92228462        0.93061096       -3.51793217
 C            1.05383886       -0.45741009       -3.55126444
 C           -0.13432038       -1.30077412       -3.54051277
 C           -1.39790921       -0.71680689       -3.53262235
 C           -0.34004326        1.49809057       -3.69392302
 C           -1.51084784        0.64237442       -3.81256740
