   70
C70 / DATE: 7/ 1/2024 / Origin: Program Fullerene / C70 from database
 C            1.49229153        0.18271729        4.87971646
 C            0.72581925       -1.04335019        4.77712588
 C            1.58867511       -2.04527572        4.19364422
 C            2.70628577        0.00877911        4.09633734
 C            2.77619427       -1.37459484        3.68803087
 C            2.71254413        1.02763319        3.06777804
 C            0.71562412        1.23994825        4.25712142
 C            1.56246272        1.88166078        3.28067016
 C           -0.52326657       -0.73787593        4.09995391
 C           -0.53677460        0.68228596        3.79093328
 C           -1.01469964       -1.61611476        3.14131941
 C            1.05277955       -2.84384864        3.11424394
 C           -0.30576468       -2.79203382        2.83684916
 C            2.88042837       -1.67556798        2.27087353
 C            1.96530990       -2.76254694        1.98631486
 C            3.02286614        0.69487728        1.74873826
 C            2.98722008       -0.65004684        1.34125790
 C            2.79327180        1.67997198        0.78376652
 C            0.97385577        2.40420236        2.14396431
 C            1.81013971        2.63716639        1.06150150
 C           -1.02059108        1.09390400        2.54763842
 C           -0.37609907        2.13621184        1.87793856
 C           -1.92803714       -1.11233342        2.21422130
 C           -1.83512806        0.22789026        1.81834997
 C           -2.63388680       -2.01310744        1.43498300
 C           -0.70582032       -3.52579787        1.73000066
 C           -2.03262216       -3.30680587        1.20117340
 C            1.42227107       -2.88907551        0.70438396
 C            0.21477119       -3.57670183        0.60103937
 C            2.69564629       -0.94886043        0.01276601
 C            1.75498470       -1.94485588       -0.27995894
 C            3.10411636        1.37651804       -0.53865596
 C            3.02766179       -0.01018693       -0.94954889
 C            2.58179238        2.19598453       -1.61791800
 C            1.29933545        3.43175261        0.04908855
 C            1.79856248        3.29261647       -1.30522418
 C           -0.90537205        2.60216631        0.67265136
 C           -0.14298246        3.53593650       -0.02873009
 C           -2.32774600        0.63350776        0.56956869
 C           -1.84932329        1.82110267       -0.01468975
 C           -3.21028170       -1.57002687        0.18543552
 C           -3.17983537       -0.21862506       -0.14705026
 C           -1.96284371       -3.50664503       -0.23246975
 C           -0.56873098       -3.47616080       -0.61295458
 C           -2.83866972       -2.53307039       -0.84220848
 C            1.01865942       -1.88248872       -1.47692211
 C           -0.19140060       -2.57538279       -1.59630168
 C            2.39422842       -0.06139394       -2.25007621
 C            2.18286364        1.30593897       -2.70004757
 C            1.41596033       -1.01438228       -2.50230646
 C            1.06585387        1.59205045       -3.48451950
 C            0.72320643        3.67041677       -2.20003738
 C           -0.47582766        3.86297466       -1.39317150
 C            0.36883034        2.78861891       -3.29847403
 C           -2.27447111        2.20054018       -1.30041609
 C           -1.54786969        3.13903909       -2.02965735
 C           -1.08424378        2.79282971       -3.36294856
 C           -3.50747477        0.09336700       -1.46126223
 C           -3.13724219        1.37701577       -2.00967638
 C           -2.49803129       -2.02043115       -2.08455892
 C           -1.15877697       -2.12613924       -2.49887331
 C           -3.23066404       -0.90899758       -2.47618144
 C            0.57998812       -0.81201969       -3.59957198
 C            0.43564089        0.53505283       -4.13647477
 C           -0.72555935       -1.44483456       -3.63109580
 C           -1.73373846        1.77757153       -4.04629348
 C           -2.91734805        1.19377293       -3.43922959
 C           -2.89767792       -0.23332837       -3.70870611
 C           -0.93607533        0.69215500       -4.58958149
 C           -1.63526480       -0.55527007       -4.33358685
