   70
C70 / DATE: 7/ 1/2024 / Origin: Program Fullerene / C70 from database
 C            1.50823293       -0.00902201        4.52549958
 C            0.72644815       -1.17350401        4.15512114
 C            1.48742741       -1.93836085        3.19498648
 C            2.67645085        0.02837368        3.66300646
 C            2.65213102       -1.14474481        2.82466451
 C            2.70335510        1.31485304        3.01672054
 C            0.70897560        1.16958831        4.23563463
 C            1.50113320        2.04103388        3.40132217
 C           -0.58349837       -0.72060023        3.75750190
 C           -0.57134805        0.73257087        3.72799850
 C           -1.21734999       -1.37052549        2.71359946
 C            0.80748751       -2.60882401        2.18272852
 C           -0.57221023       -2.40939569        2.02503504
 C            1.55453781       -2.97779624        1.07602381
 C            2.97011387       -1.02846005        1.47315619
 C            2.66277675       -2.12456597        0.67586192
 C            3.10934956        1.40320867        1.69090822
 C            3.09174631        0.24547075        0.88294058
 C            2.90735139        2.64377961        1.10166940
 C            0.86691025        2.79664680        2.42060175
 C            1.69818601        3.36607389        1.45850797
 C           -1.10786015        1.37642350        2.61241217
 C           -0.46680923        2.50798453        2.08627506
 C           -2.22666802       -0.68001680        2.06473758
 C           -2.05313017        0.68782549        1.83974626
 C           -3.08006240       -1.41333792        1.26271394
 C           -1.24264736       -2.99217600        0.93754058
 C           -2.60215729       -2.69700923        0.78851294
 C            0.87993323       -3.43018487       -0.11973243
 C           -0.50587675       -3.49329185       -0.15040603
 C            2.61684202       -1.98422715       -0.76216407
 C            1.58381943       -2.87775251       -1.26714983
 C            3.09563311        0.36415518       -0.52290790
 C            2.76542712       -0.73040320       -1.32767660
 C            3.12910933        2.80532331       -0.31182829
 C            3.21110845        1.61673641       -1.12547061
 C            1.13794766        3.92988423        0.24491333
 C            2.05490142        3.63303916       -0.84165412
 C           -1.05963860        3.17604022        1.01893966
 C           -0.22454630        3.82555356        0.02074837
 C           -2.59375677        1.28280782        0.69429195
 C           -2.17097123        2.55410940        0.31883634
 C           -3.74723993       -0.75820229        0.15904292
 C           -3.33318969        0.51552444       -0.21079735
 C           -3.29215533       -2.98137314       -0.45409407
 C           -3.97672267       -1.76456392       -0.86602083
 C           -1.09416919       -3.62725611       -1.40643669
 C           -2.52202159       -3.46001289       -1.57493752
 C            0.85816176       -2.52697016       -2.40579173
 C           -0.43656489       -3.02205304       -2.55320700
 C            2.27898277       -0.52577177       -2.61627528
 C            1.23391110       -1.39752235       -3.13091496
 C            2.46034899        1.88978133       -2.33761354
 C            1.54832282        2.97806856       -2.03516187
 C            1.99253130        0.82052777       -3.07759214
 C           -0.69958431        3.40241577       -1.28684730
 C           -2.03300425        2.86688965       -1.09413296
 C            0.17605348        2.77864580       -2.17753479
 C           -3.35076605        0.86776035       -1.56045419
 C           -2.53506465        1.97453771       -2.02413172
 C           -3.59494561       -1.47477452       -2.23658880
 C           -2.73248249       -2.54867225       -2.68979064
 C           -1.43193354       -2.22065742       -3.24867425
 C           -3.27349188       -0.16874188       -2.57657129
 C            0.20692078       -0.55053314       -3.72216294
 C            0.61499863        0.83293032       -3.53802895
 C           -0.28716798        1.74859256       -3.00267119
 C           -1.64763207        1.45594636       -3.05299813
 C           -1.13007984       -0.90183548       -3.57431743
 C           -2.08082025        0.10003635       -3.36946246
