   70
C70 / DATE: 7/ 1/2024 / Origin: Program Fullerene / C70 from database
 C            1.27847545       -0.10535975        4.42387688
 C            2.51582250       -0.33993150        3.71632683
 C            2.50498042       -1.71312247        3.24583274
 C            0.44141954       -1.28338525        4.27295872
 C            1.22555742       -2.30418814        3.60252370
 C           -0.81883243       -0.86399290        3.67733834
 C            0.48789146        1.04099195        4.03710967
 C           -0.84752371        0.58394950        3.69165979
 C            1.05039115        2.02542646        3.23675711
 C            2.83477133        0.51607288        2.58766936
 C            2.10355340        1.67899855        2.37093614
 C            2.91020981       -1.70968715        1.84913187
 C            3.12559669       -0.33237725        1.44540133
 C            2.27379238       -2.56431926        0.96131817
 C            0.59408438       -3.11103998        2.66858280
 C            1.29654648       -3.43703590        1.44279086
 C           -1.29566663       -1.54269162        2.56405081
 C           -0.77337708       -2.80105517        2.27651672
 C           -1.96586539       -0.83970852        1.56267740
 C           -1.53048774        1.27300001        2.69236153
 C           -2.09168050        0.55687063        1.62721677
 C            0.17338574        3.02221010        2.83139070
 C           -1.18456698        2.61281854        2.49810110
 C            0.61139773        3.96360679        1.82457293
 C            2.15014990        2.24314510        1.09573440
 C            1.66830905        3.53621834        0.93799511
 C            2.70658118        0.07420139        0.17899317
 C            2.31991314        1.40391194       -0.01799506
 C            2.27035031       -2.24040426       -0.39288229
 C            2.36905611       -0.89168355       -0.77491105
 C            1.72880470       -3.17417161       -1.26942371
 C            0.28960871       -3.94164611        0.52636705
 C           -0.98115053       -3.37870120        0.95712474
 C            0.58234533       -3.94550421       -0.82565239
 C           -2.41161155       -1.52293814        0.42997104
 C           -1.76862077       -2.69966248        0.03213699
 C           -3.27235748       -0.87643781       -0.44626904
 C           -2.57279057        1.25439229        0.51488344
 C           -3.27878130        0.57308323       -0.46529667
 C           -1.54749048        3.27591977        1.25791341
 C           -0.53911311        4.28463716        1.00041027
 C           -2.04266348        2.50548166        0.21195463
 C            1.33423409        4.01983452       -0.38104008
 C           -0.05941506        4.44964574       -0.35084168
 C            1.92960427        1.81999178       -1.29741056
 C            1.47836408        3.12286925       -1.50671818
 C            1.96772456       -0.47920143       -2.05181449
 C            1.67794072        0.86615480       -2.28587346
 C            1.49980409       -2.81031895       -2.64909080
 C            1.62244576       -1.42091747       -3.02097715
 C           -0.48595550       -3.66988891       -1.76613185
 C           -1.62680133       -2.99961232       -1.32878167
 C            0.15243946       -3.23910404       -2.99596962
 C           -3.35840584       -1.33810445       -1.81616849
 C           -2.40647504       -2.33117082       -2.26901687
 C           -3.12452204        0.99867418       -1.84328974
 C           -3.24803722       -0.17845579       -2.68629920
 C           -1.75475887        2.83364957       -1.12287923
 C           -0.73646515        3.74139394       -1.41719943
 C            0.30311713        3.32696671       -2.33235754
 C           -2.16560448        1.96400937       -2.13689926
 C            0.87553975        1.21500352       -3.37524002
 C           -0.00996631        2.35577023       -3.26176197
 C           -1.36038616        1.81646476       -3.27167942
 C            0.53124950       -1.13066308       -3.93418937
 C           -0.46659910       -2.17632960       -3.76754041
 C           -1.78335264       -1.82833617       -3.48630806
 C           -2.21923316       -0.45343954       -3.67135762
 C            0.12740733        0.18667446       -4.07407838
 C           -1.28430744        0.53254764       -3.95724179
