   70
C70 / DATE: 7/ 1/2024 / Origin: Program Fullerene / C70 from database
 C            1.14294899        0.05503600        5.40607149
 C            0.42852701       -1.13174503        4.97238198
 C            1.36443160       -1.99559722        4.29075442
 C            2.47535717       -0.00012718        4.82907107
 C            2.60562341       -1.25868870        4.12034732
 C            2.68093608        1.23000052        4.09762276
 C            0.46326187        1.21382127        4.84432127
 C            1.44846559        2.00786006        4.15788634
 C           -0.74202450       -0.69718267        4.24168259
 C           -0.67902626        0.74262952        4.08952986
 C           -1.16623926       -1.41702225        3.13678732
 C            0.98459022       -2.51591177        2.99053356
 C           -0.31577201       -2.35891617        2.53436792
 C            2.91510978       -1.25218853        2.69742320
 C            2.05342344       -2.22984164        2.05741948
 C            3.07011046        1.16872694        2.70095739
 C            3.17147185       -0.05658043        2.03003697
 C            1.15626421        2.45499163        2.80764042
 C            2.36490682        2.25300553        2.04262882
 C           -0.96761012        1.27413788        2.82686724
 C           -0.05891258        2.14091609        2.19611372
 C           -2.08909964       -0.78457323        2.31662424
 C           -1.87787292        0.56913382        2.03396613
 C           -2.69686753       -1.57593821        1.36132804
 C           -0.55725689       -2.67659289        1.19964889
 C           -1.87859745       -2.62286460        0.78627400
 C            1.72511902       -2.04904825        0.71481605
 C            0.45704162       -2.42816498        0.26132645
 C            3.05212909       -0.03546751        0.64070772
 C            2.44278193       -1.11263144       -0.02100572
 C            2.25200908        2.18667522        0.66818802
 C            3.00540862        1.21399458        0.03426838
 C           -0.14099006        2.31685653        0.80891947
 C            1.03489692        2.53213766        0.08034851
 C           -2.18891713        1.05419691        0.76295960
 C           -1.29278200        1.92200233        0.13498911
 C           -3.41237860       -0.94465568        0.27597775
 C           -3.15960592        0.39525056        0.00510054
 C           -2.18609074       -2.68538602       -0.62257735
 C           -3.39623772       -1.90304676       -0.81324558
 C            0.12516782       -2.21932653       -1.08734794
 C           -1.15407334       -2.56327564       -1.54239729
 C            2.20536530       -1.00246470       -1.39188320
 C            1.00908291       -1.51388393       -1.92363534
 C            3.05505510        1.26642090       -1.34140969
 C            2.86695777        0.02459176       -2.05633588
 C            0.99119571        2.55334112       -1.31731513
 C            2.16927077        2.20883363       -1.98669738
 C           -1.39429319        2.15377407       -1.23624328
 C           -0.24113404        2.43609396       -1.97523398
 C           -3.48860174        0.88937623       -1.25221972
 C           -2.58177194        1.82582935       -1.88864048
 C           -3.70183838       -1.46007971       -2.08831032
 C           -3.95575416       -0.04056650       -2.27058510
 C           -1.49940923       -2.35262591       -2.87073473
 C           -2.84854812       -1.89718241       -3.17906874
 C            0.66563919       -1.26474800       -3.26639195
 C           -0.58698554       -1.64571221       -3.74095248
 C            2.47145120        0.38774245       -3.39820978
 C            2.13226519        1.80663365       -3.37455066
 C            1.36085344       -0.30502098       -4.00081288
 C           -0.28333758        2.37144076       -3.37202101
 C            0.90106614        1.97674673       -4.10539584
 C            0.60221415        0.69906112       -4.72453393
 C           -2.57748029        1.54718373       -3.31713317
 C           -3.38352159        0.35885605       -3.54310732
 C           -2.75089452       -0.80666257       -4.13109711
 C           -1.36501432       -0.69971823       -4.53655055
 C           -1.39308067        1.70153372       -4.02275960
 C           -0.83837952        0.56460623       -4.75748492
