   70
C70 / DATE: 7/ 1/2024 / Origin: Program Fullerene / C70 from database
 C            1.23726332       -0.13906710        4.32256422
 C            2.54727446       -0.46300562        3.80880834
 C            2.46383341       -1.77508895        3.17760192
 C            0.41369207       -1.32471241        4.16554317
 C            1.07332018       -2.18516356        3.21220547
 C           -0.91763079       -0.87449601        3.84521742
 C            0.51161385        0.96463353        3.72127848
 C           -0.88241260        0.57421841        3.71136311
 C            1.03999602        1.60247442        2.60283447
 C            3.14485767        0.42828522        2.83782203
 C            2.41288575        1.50695169        2.33552648
 C            3.13094713       -1.67508764        1.89134664
 C            3.85952904       -0.42146456        1.90431203
 C            2.43609624       -2.03218092        0.73991216
 C            0.42256882       -2.46713413        2.01430584
 C            1.18019384       -2.63331309        0.85339921
 C           -1.65845916       -1.57726600        2.90724443
 C           -0.97146426       -2.31466200        1.92295032
 C           -2.87614596       -1.00017238        2.58586663
 C           -1.74880217        1.15306343        2.79011480
 C           -2.92336121        0.45054354        2.51629273
 C            0.16431894        2.10292191        1.63041172
 C           -1.22484693        2.00565002        1.81188058
 C            0.67031874        2.68054431        0.46144758
 C            2.93973638        2.18088375        1.24009433
 C            2.03991584        2.78933674        0.27906940
 C            4.24898343        0.12801682        0.69518405
 C            4.01649651        1.54742388        0.49577791
 C            2.85283825       -1.52007008       -0.49374004
 C            3.84798259       -0.54072933       -0.53258299
 C            2.12359850       -1.80660126       -1.65150820
 C            0.56374355       -3.11711893       -0.28698070
 C            1.05050225       -2.68795427       -1.58471979
 C           -1.62966683       -2.71854875        0.74770205
 C           -0.88477434       -3.16322402       -0.33962407
 C           -3.63986289       -1.53021657        1.48589227
 C           -2.95304417       -2.35345129        0.51848160
 C           -3.74925432        0.81608402        1.37983696
 C           -4.24145480       -0.41007738        0.78116395
 C           -2.07824696        2.51861928        0.83366212
 C           -3.33706728        1.84640814        0.55195204
 C           -0.16018964        2.83972792       -0.64332563
 C           -1.52605228        2.96070853       -0.43466839
 C            0.34231750        2.60748471       -1.92887100
 C            2.57747585        2.57138225       -1.05247954
 C            3.77548866        1.76160740       -0.91863440
 C            3.81330244        0.46852722       -1.57639610
 C            1.69258189        2.28811350       -2.08840438
 C            2.24189858       -0.97913275       -2.76566179
 C            2.97830656        0.26911509       -2.66237357
 C            2.05447607        1.32754819       -3.03458907
 C            1.07134423       -0.72182900       -3.59335506
 C            1.02784384        0.71326347       -3.85574711
 C           -0.10035490       -2.48600034       -2.45278934
 C           -1.29880010       -2.79445131       -1.68674670
 C           -0.11047319       -1.42394548       -3.35182953
 C           -3.34171663       -1.89056633       -0.80493348
 C           -4.04441150       -0.62666742       -0.63893512
 C           -2.45457551       -2.03693900       -1.86950121
 C           -3.44742181        1.69695666       -0.89333512
 C           -2.45511546        2.58322939       -1.48532058
 C           -3.70107835        0.44151539       -1.45942084
 C           -0.53367473        2.37085414       -2.98879111
 C           -0.20070373        1.34326367       -3.96185825
 C           -1.96716466        2.31390701       -2.75343562
 C           -1.33040100       -0.86773387       -3.72726679
 C           -2.51488588       -1.12445584       -2.92192216
 C           -3.20053138        0.14473149       -2.72190188
 C           -1.37772133        0.52088722       -4.15078975
 C           -2.48577566        1.16364517       -3.46662716
