   70
C70 / DATE: 7/ 1/2024 / Origin: Program Fullerene / C70 from database
 C            1.44273499       -0.02693495        5.20768252
 C            0.71016846       -1.22135534        4.83509414
 C            1.47822624       -1.93122651        3.82347023
 C            2.72422647       -0.07027368        4.52968102
 C            2.74669795       -1.25326317        3.68299483
 C            2.79437155        1.08247650        3.65245407
 C            0.69891460        1.10866593        4.68717329
 C            1.51888443        1.76858987        3.69144622
 C           -0.63978350       -0.81118826        4.49905986
 C           -0.60820688        0.62950884        4.28461004
 C           -1.33171868       -1.58686534        3.58151859
 C            0.81479082       -2.36211925        2.67699828
 C           -0.56876928       -2.49662904        2.74133518
 C            1.42868935       -2.24617742        1.41978793
 C            3.14977824       -0.83553141        2.35786532
 C            3.25620307        0.61150005        2.36597210
 C            2.54909297       -1.42296021        1.24575060
 C            2.81021658        1.26377697        1.23025773
 C            0.93751071        2.12414157        2.47766191
 C            1.73485771        2.15468978        1.33460423
 C           -1.17937136        1.13713970        3.12080889
 C           -0.44497084        2.02615610        2.31996345
 C           -2.29972794       -0.93914546        2.71356384
 C           -2.24938080        0.44100470        2.55866757
 C           -1.31929485       -2.68679597        1.51948386
 C           -2.44379073       -1.77092756        1.52908145
 C            0.73993020       -2.66920322        0.28011122
 C           -0.64411979       -2.86079658        0.32981783
 C            1.32837462       -2.47465985       -0.97021401
 C            2.71495903       -0.78134743        0.01407343
 C            2.97034136        0.59333552        0.02822296
 C            2.18791345       -1.38114213       -1.13431101
 C            2.78462785        1.33724936       -1.11983521
 C            1.19345411        2.67313648        0.15600760
 C            1.91866593        2.49405305       -1.02234905
 C           -1.01458396        2.50144600        1.13752191
 C           -0.18419692        2.91196126        0.08620706
 C           -2.90566094        0.99826007        1.47312388
 C           -2.34628435        2.19179320        0.87765775
 C           -2.83522180       -1.17451171        0.32918380
 C           -3.31721050        0.12962364        0.37873761
 C           -1.37018902       -2.69567967       -0.83857176
 C           -2.33400359       -1.67711064       -0.88077456
 C            0.67703372       -3.01545634       -2.07617643
 C           -0.76778170       -3.12738739       -2.00720640
 C            1.01591740       -2.53385805       -3.39517498
 C            2.25147330       -0.70054626       -2.36134579
 C            2.49356239        0.66488185       -2.36483649
 C            1.66319000       -1.24689354       -3.49632870
 C            1.28088964        2.67819948       -2.31185581
 C            1.62616198        1.53190146       -3.14606916
 C           -0.75443070        3.32600989       -1.12201472
 C            0.00321620        3.20517677       -2.35836496
 C           -2.85311171        2.26384791       -0.47771877
 C           -3.33792328        0.93373218       -0.82726536
 C           -2.13743676        2.98593458       -1.41655824
 C           -2.56862025       -0.97779615       -2.07719818
 C           -2.96087172        0.36367387       -2.03811854
 C           -1.31788962       -2.70753428       -3.27423826
 C           -0.20548677       -2.49096960       -4.18164321
 C           -2.15344703       -1.52543656       -3.29199020
 C            0.83470607       -0.39023184       -4.33728578
 C            0.67929092        0.95212228       -3.99119166
 C           -0.33972074       -1.15174129       -4.72126067
 C           -1.64013037       -0.64533797       -4.33133753
 C           -0.89801930        2.75686608       -3.40051475
 C           -2.20909669        2.56712319       -2.80366582
 C           -2.63041935        1.20855316       -3.09632782
 C           -0.57444664        1.55073697       -4.14588353
 C           -1.77375401        0.72176579       -4.16002484
