   70
C70 / DATE: 7/ 1/2024 / Origin: Program Fullerene / C70 from database
 C            1.64660466       -0.06995351        4.61459112
 C            0.80129593       -1.23084352        4.40561505
 C            1.39963937       -2.04146149        3.35921489
 C            2.68525764       -0.09214715        3.59975983
 C            2.53686689       -1.30770172        2.83468620
 C            2.64157297        1.16502629        2.88862176
 C            0.83505776        1.11142681        4.38427727
 C            1.52808104        1.94072925        3.41958799
 C           -0.55920858       -0.76529276        4.22024986
 C           -0.50805973        0.67965698        4.05886362
 C           -1.38557447       -1.49974590        3.38611707
 C            0.56301869       -2.69101582        2.45302566
 C           -0.82010331       -2.61398561        2.64159444
 C            1.06003001       -2.99787667        1.18166165
 C            2.69122911       -1.26008876        1.45843400
 C            2.20252517       -2.33209514        0.72212340
 C            2.85346641        1.17504637        1.51120109
 C            2.91091581       -0.03669509        0.80587202
 C            2.49563861        2.33370350        0.82937323
 C            0.77602328        2.68920934        2.52079767
 C            1.44307319        3.15937868        1.39454550
 C           -1.13433524        1.27277123        2.96625799
 C           -0.60346160        2.45572174        2.43929945
 C           -2.27533062       -0.79816087        2.47792931
 C           -2.07744225        0.55137792        2.22549889
 C           -1.71363873       -2.86362229        1.52351831
 C           -2.54486964       -1.68005235        1.35835164
 C            0.22689122       -3.65427634        0.27742187
 C           -1.21030603       -3.48778631        0.39545139
 C            0.55458489       -3.66969885       -1.13805828
 C            2.59617903       -2.43721053       -0.60559831
 C            1.78163681       -3.18018964       -1.55003611
 C            2.92518888       -0.02062485       -0.59370626
 C            3.06187508       -1.23285825       -1.26539211
 C            2.30651944        2.29664239       -0.60899975
 C            2.41067859        1.08682249       -1.27510761
 C            0.68900681        3.74122847        0.30223918
 C            1.21311448        3.19178891       -0.94249812
 C           -1.35743097        3.15336113        1.49963753
 C           -0.67849840        3.90177311        0.45331779
 C           -2.57898188        1.09426862        1.04591438
 C           -2.47743287        2.46969516        0.88136226
 C           -2.70909934       -1.13362883        0.08697126
 C           -2.79842075        0.25868188       -0.06359777
 C           -1.70800644       -3.08707574       -0.90718836
 C           -0.65062748       -3.31706692       -1.87796800
 C           -2.49530615       -1.94574980       -1.02921992
 C           -0.58127731       -2.49349542       -3.00201591
 C            1.87958592       -2.51918222       -2.83619698
 C            2.68543974       -1.31925177       -2.66238050
 C            0.66218464       -2.13364405       -3.52868453
 C            1.72022744        0.91789877       -2.47836688
 C            1.95935198       -0.21316039       -3.25137088
 C            0.87440316       -0.78158457       -4.02804319
 C            0.33980169        2.84475284       -1.97142201
 C            0.64085842        1.75278584       -2.79135686
 C           -1.51650365        3.86670756       -0.72887621
 C           -2.68335002        3.05307316       -0.42282060
 C           -0.95594991        3.36099502       -1.96876040
 C           -3.06558893        0.80437365       -1.32898420
 C           -2.90277991        2.17105643       -1.54665993
 C           -2.01719164        2.61278636       -2.61338494
 C           -2.67577006       -1.41895534       -2.29885467
 C           -1.70469307       -1.73995885       -3.33674214
 C           -3.04901491       -0.02615796       -2.44554579
 C           -0.22352857        0.01252755       -4.31474603
 C           -0.27792151        1.35969245       -3.76790567
 C           -1.68009395        1.70577506       -3.60335376
 C           -1.54575870       -0.56528646       -4.17329673
 C           -2.43226811        0.46684677       -3.66624520
