   70
C70 / DATE: 7/ 1/2024 / Origin: Program Fullerene / C70 from database
 C            1.31261858        0.08586452        4.98734604
 C            0.54987522       -1.11838523        4.71384273
 C            1.43629214       -2.07328262        4.09016316
 C            2.61065873       -0.06195469        4.35032942
 C            2.71687452       -1.41804768        3.86975768
 C            2.75558482        1.01248924        3.39124396
 C            0.62595342        1.19744206        4.34816681
 C            1.55245673        1.83195028        3.44479157
 C           -0.64473369       -0.72809988        3.99481926
 C           -0.61545506        0.70719682        3.79811525
 C           -1.09438968       -1.49715791        2.93063179
 C            1.02615477       -2.67057543        2.83284435
 C           -0.24970411       -2.44887233        2.33632835
 C            3.07897413       -1.62414667        2.48174359
 C            2.13551063       -2.57213239        1.90821576
 C            3.32786250        0.76929319        2.14139176
 C            3.50586617       -0.55497931        1.69443946
 C            3.20548546        1.79877693        1.21023868
 C            1.07512691        2.35984980        2.25050046
 C            2.03194005        2.65360961        1.29042198
 C           -1.04678165        1.19068828        2.56487116
 C           -0.23589157        2.07178626        1.83299029
 C           -2.08155711       -0.93218929        2.13178407
 C           -2.00748491        0.44272847        1.87860872
 C           -2.65876940       -1.75950138        1.18558998
 C           -0.48256837       -2.79013181        1.00677764
 C           -1.79774703       -2.74919266        0.57198745
 C            1.87407823       -2.50196950        0.53848983
 C            0.55205297       -2.61456393        0.07820847
 C            3.63927864       -0.81472947        0.33191837
 C            2.81960193       -1.86491631       -0.25656542
 C            3.49017080        1.56700007       -0.19212386
 C            3.72188385        0.27253230       -0.62441467
 C            1.62023358        2.97602804       -0.05632601
 C            2.62010428        2.44188433       -0.96344468
 C           -0.64979840        2.43505244        0.54627530
 C            0.27989954        2.88196757       -0.40213090
 C           -2.54588192        0.96220049        0.69837377
 C           -1.92960705        2.07846362        0.12394823
 C           -3.47507696       -1.18206328        0.14345682
 C           -3.45444505        0.19335641       -0.04206051
 C           -2.08524409       -2.75602776       -0.84598572
 C           -3.34767613       -2.05231012       -1.01144328
 C            0.24375453       -2.31302491       -1.26074654
 C           -1.05133836       -2.52865220       -1.74609012
 C            2.47450184       -1.46142827       -1.60299170
 C            3.12702792       -0.19003980       -1.86833076
 C            1.18524010       -1.67024701       -2.07473842
 C            2.22134680        2.06655550       -2.23824991
 C            2.49878141        0.71743108       -2.71033238
 C           -0.05517348        2.87391116       -1.75813371
 C            0.88110749        2.41817225       -2.68306378
 C           -2.37859136        2.57250249       -1.09383809
 C           -1.39503852        2.85341951       -2.11985292
 C           -4.01014591        0.70109601       -1.21251725
 C           -3.52152287        1.95694596       -1.73631001
 C           -3.68291066       -1.55154102       -2.25991674
 C           -4.20746276       -0.19720874       -2.34151282
 C           -1.37221475       -2.12760984       -3.04058430
 C           -2.73912023       -1.72736706       -3.34891859
 C            0.76522214       -0.95809082       -3.19949067
 C            1.34330738        0.27723004       -3.47404567
 C            0.47417459        1.42611214       -3.66273419
 C           -0.48699558       -1.21506949       -3.73446481
 C           -1.78855117        2.10837318       -3.30569652
 C           -3.18899515        1.75680014       -3.13935275
 C           -3.64107477        0.43521641       -3.52144104
 C           -2.68437376       -0.48350071       -4.10178553
 C           -0.88384297        1.20663944       -3.87360850
 C           -1.28883833       -0.09155656       -4.19536938
