   70
C70 / DATE: 7/ 1/2024 / Origin: Program Fullerene / C70 from database
 C            1.19580207        0.06522427        4.70186290
 C            2.46021072       -0.01577910        4.00291542
 C            2.51886375       -1.32666526        3.38344803
 C            0.38107387       -1.05947946        4.25745697
 C            1.16844582       -1.83189639        3.31343879
 C           -0.89768573       -0.53199173        3.82526456
 C            0.40526800        1.26728766        4.54182696
 C           -0.95292389        0.85458674        4.23667789
 C            0.78705144        2.22744357        3.51998111
 C            2.75528675        0.95947492        2.96344654
 C            1.79915551        1.90586639        2.61173662
 C            3.23343068       -1.17577678        2.13952591
 C            3.45268542        0.24620614        1.91744080
 C            2.83618554       -1.92771572        1.04260971
 C            0.63933521       -2.11187700        2.05565250
 C            1.50555783       -2.37384107        0.98386159
 C           -1.36613586       -0.85618561        2.55881999
 C           -0.70117884       -1.81608567        1.79499271
 C           -2.27069661       -0.00212746        1.93080184
 C           -1.49233606        1.82070137        3.29821494
 C           -0.45099274        2.79906967        3.03041108
 C           -2.25168527        1.36753998        2.22517459
 C           -0.44732795        3.42175760        1.79377097
 C            1.69507588        2.31965425        1.27788129
 C            0.71004656        3.24563772        0.92884946
 C            3.38428325        0.70108722        0.60544886
 C            2.39430233        1.63994513        0.26483343
 C            3.47592762       -1.60724571       -0.14270980
 C            3.80862952       -0.20819529       -0.35717285
 C            2.97480772       -2.13925310       -1.38609382
 C            0.95118685       -2.75871503       -0.24442817
 C            1.74399213       -2.77801631       -1.40315122
 C           -1.24772088       -2.18935261        0.57205365
 C           -0.44090568       -2.85629076       -0.35069587
 C           -2.90097698       -0.44149286        0.76910851
 C           -2.45996002       -1.62025938        0.16498280
 C           -3.66744019        0.46427225        0.03621215
 C           -2.54183786        2.27586134        1.21100973
 C           -1.62736819        3.29853666        0.95323858
 C           -3.41182901        1.88272764        0.20263385
 C            0.23685069        3.29381164       -0.44358087
 C           -1.19355156        3.54094185       -0.41190249
 C            1.97834010        1.78306206       -1.07344871
 C            0.75700062        2.38706401       -1.35364629
 C            3.59951603        0.08801420       -1.75287614
 C            3.25249161       -1.15531701       -2.41699835
 C            2.59270017        1.06213875       -2.09120375
 C            2.20929805       -0.86739070       -3.38334538
 C            1.75655661        0.49345744       -3.13598713
 C            1.13513922       -2.92903764       -2.64625446
 C            1.25853862       -1.84743301       -3.61497676
 C           -1.01198288       -3.39070755       -1.50018840
 C           -0.22593216       -3.41432810       -2.71265533
 C           -3.04526510       -2.02276786       -1.03119888
 C           -2.34875225       -2.97626889       -1.87594717
 C           -3.92558262        0.22356209       -1.37587071
 C           -3.59247067       -1.00873223       -1.91233609
 C           -3.24859166        2.45532002       -1.12221479
 C           -1.98202990        3.07781369       -1.45329279
 C           -3.50254783        1.41039794       -2.09650473
 C           -0.04185916        1.88446051       -2.38710667
 C            0.39271090        0.78052618       -3.11805049
 C           -1.36707866        2.28206887       -2.50420300
 C           -2.34314736        1.31279118       -2.96873654
 C           -0.09116886       -1.43919411       -3.94410119
 C           -0.92256362       -2.59996003       -3.69591382
 C           -2.26593194       -2.39196392       -3.20857043
 C           -2.76107776       -1.03470430       -3.10158802
 C           -0.53777376       -0.17774057       -3.54592233
 C           -1.90943758        0.04547726       -3.35271128
