   70
C70 / DATE: 7/ 1/2024 / Origin: Program Fullerene / C70 from database
 C            1.54814291       -0.05193874        4.73148077
 C            0.73711750       -1.24457128        4.60488965
 C            1.19506360       -1.98278360        3.44119358
 C            2.52651289       -0.07141535        3.65973917
 C            2.25787947       -1.21306734        2.81553361
 C            2.49799005        1.22869921        3.03838185
 C            0.67547173        1.08930877        4.50429771
 C            1.27493603        1.89027882        3.46840163
 C           -0.64942103       -0.82681105        4.63558781
 C           -0.66123565        0.58771658        4.28320732
 C           -1.57467566       -1.65314379        4.02343731
 C            0.23823649       -2.58044438        2.63073994
 C           -1.07892644       -2.66246979        3.09635521
 C            0.48441019       -2.68760119        1.26196444
 C            2.22716645       -1.01563552        1.43771741
 C            1.41369793       -1.83456928        0.65364917
 C            2.80837742        1.32873345        1.69062285
 C            2.73793577        0.17358743        0.89297481
 C            2.45456326        2.53212457        1.10715315
 C            0.46631901        2.43798527        2.47772204
 C            1.15179134        3.07477502        1.45469573
 C           -1.37739538        1.00672138        3.15624237
 C           -0.75642317        1.81005030        2.18190884
 C           -2.71206131       -1.02533841        3.38185129
 C           -2.53811724        0.31021174        2.83596683
 C           -2.15510089       -2.95270974        2.16327281
 C           -3.14237264       -1.89751710        2.30603230
 C           -0.43692531       -3.36968801        0.47881031
 C           -1.83276092       -3.37220160        0.88286363
 C           -0.40656057       -3.21655762       -0.96429653
 C            1.44364581       -1.68794659       -0.73400641
 C            0.55158232       -2.39617122       -1.54895767
 C            2.78643151        0.30660227       -0.50314170
 C            2.29545046       -0.73809023       -1.29657356
 C            2.62528993        2.69037848       -0.31243937
 C            2.97542367        1.57964353       -1.06530699
 C            0.47664265        3.35897935        0.21094677
 C            1.52882518        3.52297127       -0.77361043
 C           -1.26296984        1.83643798        0.86435214
 C           -0.64610530        2.61463453       -0.12120851
 C           -3.00677196        0.28757679        1.46443546
 C           -3.43561924       -1.06486481        1.15481755
 C           -2.31465734        0.99754129        0.49415160
 C           -2.57554070       -2.82064056       -0.23524298
 C           -1.78420799       -3.11304040       -1.41747397
 C           -3.16169495       -1.55846338       -0.11285141
 C           -2.03621019       -2.38248228       -2.56569359
 C            0.36756777       -2.00425930       -2.87757774
 C           -0.91706778       -2.04198161       -3.42264779
 C            2.40807132       -0.67205848       -2.68032735
 C            1.34215323       -1.22496663       -3.49447604
 C            2.96689120        1.73640653       -2.44725858
 C            2.82857757        0.56994640       -3.29170468
 C            1.19437240        3.45759310       -2.11318294
 C            2.12870802        2.78808311       -3.00274512
 C           -0.93149030        2.38603673       -1.47366515
 C           -0.13376366        2.98124123       -2.45918964
 C           -2.45353063        0.61988475       -0.84206651
 C           -2.97728105       -0.64638939       -1.14722606
 C           -2.81611895       -1.16674825       -2.42495856
 C           -1.85355916        1.40018991       -1.83453495
 C           -1.36812489       -0.93244992       -4.24029026
 C           -2.44433389       -0.28358137       -3.50745125
 C           -1.99241621        1.04760172       -3.17636463
 C            0.94276438       -0.20293095       -4.45501964
 C            1.88525740        0.89274461       -4.35181013
 C            1.36713481        2.22364591       -4.09939790
 C           -0.04362889        2.37859200       -3.78076842
 C           -0.40765121        0.08851517       -4.60429569
 C           -0.92568134        1.36008994       -4.10763489
