   70
C70 / DATE: 7/ 1/2024 / Origin: Program Fullerene / C70 from database
 C            1.10260389       -0.11979204        4.56930371
 C            2.35165072       -0.45504795        3.92411227
 C            2.28084975       -1.85613650        3.54587215
 C            0.26038747       -1.30684291        4.53387130
 C            0.89575053       -2.25223788        3.63903856
 C           -1.08670446       -0.87556005        4.24173549
 C            0.31782772        0.97480227        4.03600830
 C           -1.06769657        0.57454817        4.12810947
 C            0.72546695        1.63133939        2.87804005
 C            2.74507720        0.28661963        2.74263369
 C            1.92985066        1.29147565        2.24244766
 C            2.92787247       -1.99090213        2.25904047
 C            3.31303406       -0.66091902        1.80565634
 C            2.38175162       -2.85310369        1.31807061
 C            0.25608809       -2.65041289        2.46604171
 C            1.02685725       -3.21479938        1.44447355
 C           -1.73640400       -1.38571201        3.05218149
 C           -1.05330216       -2.22746739        2.18101378
 C           -1.95184771        0.93747957        3.03601598
 C           -2.49741762       -0.29144943        2.48977138
 C           -0.22422084        2.36693379        2.16637006
 C           -1.55168632        1.92126537        2.13348427
 C            0.23246026        3.19532862        1.15032127
 C            2.13788059        1.70266906        0.92978816
 C            1.48320365        2.84643565        0.50091351
 C            3.25522529       -0.38954228        0.43546656
 C            2.61988010        0.78197675       -0.00946447
 C            2.95500229       -2.78482135        0.05504616
 C            3.36579574       -1.47695406       -0.43006876
 C            2.37305112       -3.52081961       -1.04458527
 C            0.35426542       -3.80777416        0.37717032
 C            1.04996433       -4.07148068       -0.86846106
 C           -1.55740959       -2.37915751        0.88818296
 C           -0.97420143       -3.32424487        0.04993103
 C           -2.79241757       -0.30492660        1.13509242
 C           -2.37591651       -1.38013638        0.33995453
 C           -2.26956498        2.02449371        0.93883624
 C           -3.02121605        0.91846791        0.52097761
 C           -0.68865890        3.63441599        0.12016057
 C           -1.94004118        3.03518263        0.03060153
 C            1.33383858        3.09733501       -0.91751723
 C            0.09364619        3.84174582       -1.08700571
 C            2.27720612        0.92175568       -1.36464234
 C            1.67708511        2.09989812       -1.82487705
 C            2.91267658       -1.35657050       -1.80032074
 C            2.34374503       -2.63661698       -2.19656017
 C            2.25873411       -0.20031042       -2.19536105
 C            0.21593527       -3.58601025       -1.95550761
 C           -1.03466977       -3.12457387       -1.38740266
 C            0.99627465       -2.65106150       -2.74005171
 C           -2.50857163       -1.28538386       -1.05322393
 C           -1.59559162       -1.94858989       -1.86466202
 C           -3.56848941        0.89325066       -0.74898546
 C           -3.22376660       -0.22631154       -1.60315240
 C           -2.66628116        3.17028021       -1.15006381
 C           -3.55062811        2.09715078       -1.55054892
 C           -0.54893564        3.82947467       -2.31633120
 C           -1.99026004        3.64315225       -2.34820823
 C            1.09392193        2.10523511       -3.09205766
 C            0.02235128        3.04265797       -3.39266456
 C            1.24567770       -0.31769579       -3.14009235
 C            0.42141919       -1.43474762       -3.08623460
 C           -0.94642434       -1.23733512       -2.88152661
 C            0.73379634        0.83766042       -3.69761698
 C           -2.77494970        0.32296496       -2.86967511
 C           -3.20174984        1.71394592       -2.90799939
 C           -2.30300604        2.72137677       -3.43023180
 C           -1.05502722        2.29223935       -4.02128225
 C           -1.52182000       -0.05440484       -3.35707381
 C           -0.68922822        0.88629507       -3.97227823
