   70
C70 / DATE: 7/ 1/2024 / Origin: Program Fullerene / C70 from database
 C            1.30056982       -0.03868748        4.35078464
 C            2.58331604       -0.36755054        3.77322808
 C            2.52252550       -1.74726374        3.32126875
 C            0.44647579       -1.21216113        4.22787751
 C            1.13266229       -2.16526362        3.38669901
 C           -0.85964634       -0.74808916        3.82023635
 C            0.55866583        1.08102090        3.80411776
 C           -0.83716293        0.70088374        3.88694207
 C            1.01724929        1.72183282        2.65040689
 C            3.06555939        0.42697058        2.66407932
 C            2.34070665        1.53178592        2.21974148
 C            3.21243486       -1.82884365        2.04473893
 C            3.61998658       -0.48285913        1.67458612
 C            2.68720782       -2.65629895        1.06875905
 C            0.51773737       -2.62604734        2.22498069
 C            1.32837280       -3.15514513        1.22635102
 C           -1.49627547       -1.34565203        2.73841502
 C           -0.79168087       -2.23424065        1.90860293
 C           -2.64364416       -0.72485872        2.25038874
 C           -1.75505468        1.39579111        3.12057522
 C           -2.80794244        0.64659736        2.45773381
 C            0.09102902        2.37763701        1.82507220
 C           -1.26224160        2.36236288        2.15343986
 C            0.47465458        2.84262674        0.56852913
 C            2.75625098        2.10767616        1.02562034
 C            1.82670127        2.90960478        0.26024733
 C            3.60857119       -0.08622974        0.33689556
 C            3.49208287        1.27976789        0.08145442
 C            2.85559786       -2.29149988       -0.32381517
 C            3.28331745       -1.01167220       -0.66561231
 C            0.78494905       -3.37154315       -0.09802601
 C            1.76214645       -2.89560082       -1.06702230
 C           -1.36920769       -2.65761116        0.70222022
 C           -0.56123554       -3.13899235       -0.33336826
 C           -3.36881043       -1.35058155        1.24662467
 C           -2.70748919       -2.36273724        0.44561796
 C           -4.18835104       -0.54232938        0.36011221
 C           -3.29193425        1.48489195        1.37444319
 C           -2.24684963        2.45400929        1.08733441
 C           -3.97187034        0.89290239        0.32338548
 C           -0.47805138        2.99914756       -0.44491032
 C           -1.80860849        2.62558138       -0.22179837
 C           -0.06220855        3.33721661       -1.72987466
 C            2.25294953        2.86098262       -1.12773182
 C            3.19188265        1.75619706       -1.25628803
 C            1.31289152        3.08684570       -2.12152701
 C            3.06893059       -0.58160141       -1.97340772
 C            3.04106453        0.83703869       -2.28262314
 C            1.31815003       -2.29429980       -2.24287016
 C            2.05031741       -1.23861013       -2.78204414
 C           -0.96360719       -2.98290695       -1.65575324
 C           -0.00939146       -2.47109207       -2.62605929
 C           -3.16352840       -2.21313608       -0.92860714
 C           -4.03390071       -1.05788542       -0.98853767
 C           -2.26221876       -2.41456362       -1.95981863
 C           -3.61882252        1.25239656       -1.03879482
 C           -2.60720623        2.17646144       -1.28380183
 C           -3.66764840        0.04824229       -1.85367570
 C           -0.89836692        2.96994614       -2.84994278
 C           -2.11289494        2.23065818       -2.58174816
 C            1.28163391        2.22488212       -3.29383666
 C            2.03128796        1.05605985       -3.30593495
 C            1.37592464       -0.21798908       -3.57079228
 C           -0.08917508        2.18063583       -3.76520270
 C           -0.68203680       -1.44621501       -3.41039558
 C           -2.06808120       -1.37631495       -2.96653038
 C           -2.69444058       -0.13396504       -2.83584237
 C           -2.06976428        0.99873652       -3.35447634
 C           -0.00671686       -0.27822616       -3.74261592
 C           -0.73773816        0.89117441       -3.92822455
