   70
C70 / DATE: 7/ 1/2024 / Origin: Program Fullerene / C70 from database
 C            1.27480980        0.01932536        4.94435015
 C            0.52287641       -1.17222500        4.59125075
 C            1.42810133       -2.08527879        3.93674797
 C            2.57145366       -0.07097205        4.29533544
 C            2.68563049       -1.38535479        3.70957897
 C            2.70483631        1.07428758        3.42299699
 C            0.57814631        1.16618906        4.38375120
 C            1.49937418        1.88025374        3.53442026
 C           -0.66089818       -0.75162543        3.86976533
 C           -0.64781866        0.69796658        3.78983557
 C           -1.08165837       -1.45554790        2.74173863
 C            1.01961731       -2.66109320        2.67196402
 C           -0.27289752       -2.45611285        2.18344270
 C            2.99514808       -1.48773079        2.29327668
 C            2.12281172       -2.50388488        1.74601920
 C            3.25740428        0.92339852        2.15575893
 C            3.22967514       -0.34158945        1.53673219
 C            3.19340888        2.05369630        1.35338201
 C            1.02315820        2.48720212        2.37336682
 C            1.98862690        2.86539046        1.44581614
 C           -1.08184840        1.27383014        2.60380918
 C           -0.27600182        2.19367539        1.91877574
 C           -2.00547707       -0.82611076        1.91291169
 C           -2.02787963        0.57173980        1.87401143
 C           -2.53743279       -1.53989583        0.84497000
 C           -0.51278292       -2.83071629        0.85740332
 C           -1.76366649       -2.56083748        0.29230746
 C            1.80638614       -2.46633490        0.39866812
 C            0.59392870       -3.02129785        0.02075619
 C            3.10473072       -0.43777072        0.14328111
 C            2.36820363       -1.48566275       -0.42496470
 C            3.55028400        1.94446424       -0.04119529
 C            3.48284567        0.63603085       -0.64999097
 C            1.59284527        3.22064582        0.10064561
 C            2.66639111        2.82385683       -0.78475286
 C           -0.66793268        2.57524475        0.62552527
 C            0.29104741        2.98258120       -0.30887551
 C           -2.64572774        1.20882657        0.80881378
 C           -1.95139858        2.24538444        0.17188938
 C           -3.54751776       -0.93693228        0.09812660
 C           -3.64981336        0.50857950        0.14704322
 C           -3.79437865       -1.35242715       -1.27243434
 C           -2.04352778       -3.03280912       -0.98863934
 C           -2.96657320       -2.30562980       -1.84108924
 C            0.40530369       -3.26514956       -1.32740080
 C           -0.93982587       -3.46380292       -1.82206265
 C            1.96143579       -1.42047213       -1.76956315
 C            1.12044009       -2.42176794       -2.26816115
 C            2.87353819        0.80184750       -1.95393982
 C            2.31112987        2.14508394       -2.01185612
 C            2.14068645       -0.24278703       -2.50632802
 C            0.03356862        2.83175273       -1.67435205
 C            1.02094626        2.29015315       -2.50940111
 C           -2.32653532        2.66907657       -1.10396594
 C           -1.28960276        2.85966900       -2.09938901
 C           -4.14443694        0.96881936       -1.13157660
 C           -4.11875395       -0.16371517       -2.04313496
 C           -3.46824354        2.07294694       -1.77153534
 C           -1.67909988        2.11756809       -3.28829874
 C           -3.26969946        0.19314335       -3.16560124
 C           -3.02602360        1.62288110       -3.08171591
 C           -2.26019984       -1.98346200       -3.07325002
 C           -1.04894661       -2.78331932       -3.10102981
 C            0.21848494       -2.13294367       -3.37206074
 C           -2.22941694       -0.66321993       -3.52287589
 C            1.23661532        0.08220303       -3.51769746
 C            0.64597930        1.40945513       -3.51685742
 C           -0.74987286        1.28625156       -3.89129412
 C            0.21158291       -0.86225168       -3.91879670
 C           -1.04556390       -0.13268928       -4.04438104
