   70
C70 / DATE: 7/ 1/2024 / Origin: Program Fullerene / C70 from database
 C            1.58258885        0.05630799        4.74682913
 C            0.74157414       -1.12268991        4.79953598
 C            1.36742589       -2.14601966        3.98060311
 C            2.58443332       -0.16160252        3.71540654
 C            2.37993983       -1.48744689        3.16902912
 C            2.53514342        0.96847220        2.80630086
 C            0.75176055        1.16330483        4.31507459
 C            1.45235729        1.83090637        3.24262285
 C           -0.62254828       -0.72014075        4.48866205
 C           -0.57583770        0.65703437        4.03040839
 C           -1.43414868       -1.62171614        3.81956058
 C            0.54776778       -3.09071285        3.38423014
 C           -0.89385017       -2.93669447        3.51869371
 C            0.80901831       -3.48064001        2.00912527
 C            2.34987797       -1.63257848        1.78515067
 C            1.66331582       -2.71040514        1.21695550
 C            2.66987064        0.74350417        1.43393216
 C            2.77544469       -0.57370186        0.97604537
 C            2.21688502        1.74033215        0.55420585
 C            0.70512928        2.42459356        2.24508097
 C            1.37770060        2.72980554        1.07518642
 C           -1.16057152        1.01008371        2.81412046
 C           -0.65437199        2.11227419        2.13011273
 C           -2.17306519       -1.17439174        2.64728838
 C           -1.92313785        0.08138447        2.10416819
 C           -1.50428113       -3.39209520        2.28606369
 C           -0.45086955       -3.93827455        1.45062598
 C           -2.31238395       -2.30629128        1.75201882
 C           -0.62064010       -3.85942128        0.08137141
 C            1.59399769       -2.83143957       -0.17353559
 C            0.52172290       -3.50921055       -0.74481763
 C            2.94468551       -0.79764425       -0.38110254
 C            2.35945264       -1.98730037       -0.97148081
 C            2.24205340        1.50574842       -0.82947529
 C            2.74707184        0.30460022       -1.30480722
 C            1.53723696        2.34304649       -1.70049256
 C            0.72720195        3.59415126        0.21628400
 C            1.03024385        3.53579561       -1.19173817
 C           -1.30634685        2.53919812        0.97619166
 C           -0.71762691        3.61047953        0.31627992
 C           -2.18246532        0.30431795        0.74783822
 C           -2.01152326        1.58777339        0.22331321
 C           -2.29018236       -2.08847761        0.37880039
 C           -1.73688902       -3.07876431       -0.42360445
 C           -2.35949314       -0.78169467       -0.11838836
 C           -0.01867898       -3.05090638       -2.01269531
 C           -1.43022274       -2.76777253       -1.79631770
 C            1.90809748       -1.64417943       -2.31453012
 C            2.22558013       -0.23859624       -2.54212096
 C            0.71440424       -2.17274681       -2.81045721
 C            1.09126045        1.85414419       -2.94310621
 C            1.36973651        0.53099400       -3.31993641
 C            0.23988164        2.63016857       -3.74039516
 C           -0.08395337        4.19244402       -1.84327376
 C           -1.23337270        4.01750278       -0.96680291
 C           -0.47918149        3.73906020       -3.15203055
 C           -2.28416106        1.82273271       -1.13303206
 C           -2.13539405        3.11735994       -1.64210508
 C           -1.86954495        3.31788831       -3.05105090
 C           -2.33941579       -0.57112206       -1.50376996
 C           -1.94209502       -1.61452479       -2.35791882
 C           -2.44968694        0.73437369       -2.00379411
 C            0.01392855       -1.44960853       -3.77640997
 C            0.50655125       -0.14628620       -4.17808179
 C           -1.42163874       -1.29777076       -3.59964886
 C           -0.74020031        1.96931349       -4.57513612
 C           -2.03316201        2.20063025       -3.94530375
 C           -2.45159613        0.93152865       -3.39023481
 C           -0.61966613        0.54491085       -4.77481193
 C           -1.82113702       -0.06329845       -4.22470925
