   70
C70 / DATE: 7/ 1/2024 / Origin: Program Fullerene / C70 from database
 C            1.33490019        0.02453843        4.97542375
 C            0.58031217       -1.17212378        4.65360920
 C            1.46714676       -2.08752505        3.97365481
 C            2.62624779       -0.08111133        4.31729063
 C            2.72571794       -1.39765490        3.73338340
 C            2.76308190        1.05979063        3.44104250
 C            0.63171192        1.16017774        4.39747409
 C            1.55177305        1.85988811        3.53695007
 C           -0.62609512       -0.75924627        3.96791244
 C           -0.59903537        0.68223042        3.81488207
 C           -1.09375756       -1.49514105        2.88885658
 C            1.03000983       -2.64989645        2.71082752
 C           -0.27369461       -2.45517323        2.27244508
 C            3.02074165       -1.50305948        2.31496830
 C            2.09415804       -2.46595664        1.74780241
 C            3.33016886        0.90669251        2.17976428
 C            3.33088070       -0.36414158        1.56948060
 C            3.25900272        2.03233259        1.36917092
 C            1.07548910        2.44497348        2.36725429
 C            2.04332278        2.82777700        1.44380945
 C           -1.02194594        1.20709101        2.59463229
 C           -0.21510593        2.12598407        1.90522443
 C           -2.07633644       -0.89570158        2.11111493
 C           -1.97448969        0.48030720        1.87436466
 C           -2.69660912       -1.69835197        1.17266561
 C           -0.55903929       -2.80413576        0.95247143
 C           -1.88522739       -2.72671332        0.55554940
 C            1.75063964       -2.33722917        0.40686230
 C            0.45223592       -2.66770975       -0.00809265
 C            3.25767546       -0.46586071        0.17372043
 C            2.53401838       -1.51791700       -0.40165371
 C            3.64122903        1.92788484       -0.02000038
 C            3.64775019        0.61390609       -0.61427131
 C            1.65315626        3.16431525        0.09305374
 C            2.72515073        2.75052928       -0.79215811
 C           -0.60554212        2.51490802        0.61927794
 C            0.35039922        2.93319157       -0.31125982
 C           -2.49377659        1.02519178        0.69603720
 C           -1.87044179        2.15435027        0.15164082
 C           -3.49686501       -1.08885001        0.13709058
 C           -3.41305043        0.28294813       -0.06081042
 C           -2.21943765       -2.76095364       -0.85217732
 C           -3.43488193       -1.97652943       -1.01002675
 C            0.12866801       -2.58280474       -1.37139322
 C           -1.20463831       -2.65174654       -1.79474745
 C            2.32069200       -1.54755657       -1.77426795
 C            1.11003056       -2.17651823       -2.27593087
 C            3.10826881        0.75704271       -1.95427500
 C            2.37620718        2.01228872       -1.99466566
 C            2.55040914       -0.34934161       -2.56608410
 C            0.11039228        2.72414070       -1.66643489
 C            1.04601205        2.00615170       -2.41366258
 C           -2.24265644        2.61040167       -1.10977017
 C           -1.20077650        2.77750690       -2.10456221
 C           -3.94389883        0.80752665       -1.23568327
 C           -3.38962807        2.02844828       -1.77269401
 C           -3.76025875       -1.47329393       -2.26043438
 C           -4.19074867       -0.08753299       -2.35805530
 C           -1.53737647       -2.27648570       -3.09738406
 C           -2.86342718       -1.73926423       -3.37113450
 C            0.72304775       -1.45349596       -3.47490172
 C            1.38098298       -0.16518184       -3.40486615
 C            0.60515293        0.98583982       -3.26330521
 C           -0.59836707       -1.48995756       -3.87496972
 C           -1.57994539        1.98607993       -3.25670113
 C           -3.01428750        1.77394350       -3.15569829
 C           -3.57128533        0.49415484       -3.53824527
 C           -2.68957203       -0.49958730       -4.11364312
 C           -0.73313945        0.95559133       -3.66692010
 C           -1.26144592       -0.23437584       -4.17882735
