   70
C70 / DATE: 7/ 1/2024 / Origin: Program Fullerene / C70 from database
 C            1.03821648        0.06118698        5.57985714
 C            0.34021931       -1.10361568        5.06947241
 C            1.30776174       -1.95507923        4.41719466
 C            2.39968262        0.01286290        5.07263536
 C            2.55081860       -1.20983637        4.30841244
 C            2.65892764        1.27318827        4.41530847
 C            0.39801154        1.24315116        5.02020094
 C            1.43250232        2.06449636        4.45056783
 C           -0.78050964       -0.63459566        4.28307695
 C           -0.68197424        0.80662820        4.15840640
 C           -1.15282159       -1.32851497        3.14515660
 C            0.98353697       -2.45296081        3.09457684
 C           -0.30569692       -2.30749563        2.60031548
 C            2.89116514       -1.13541448        2.89363370
 C            2.07040701       -2.11071781        2.20249417
 C            3.11425835        1.27514965        3.03610897
 C            3.12076457        0.09439518        2.28132184
 C            1.23638995        2.59287065        3.11450995
 C            2.51933692        2.46047854        2.45616497
 C           -0.85580278        1.36959140        2.88530097
 C            0.07986432        2.28765788        2.38275905
 C           -1.98476612       -0.65288053        2.26651332
 C           -1.68133932        0.68356522        1.98640835
 C           -2.58086094       -1.41949430        1.28990037
 C           -0.50285812       -2.63854685        1.26014132
 C           -1.80051534       -2.53169676        0.78926993
 C            1.75651937       -1.89754086        0.86408192
 C            0.55362303       -2.41249419        0.36679853
 C            2.98510453        0.19002283        0.89235489
 C            2.37415123       -0.85124554        0.17557434
 C            2.53870267        2.57932575        1.08648856
 C            3.04283898        1.45567935        0.32253253
 C            0.09583969        2.56628482        1.01001847
 C            1.30312377        2.94956212        0.43191637
 C           -1.84240073        1.16926357        0.68116166
 C           -0.92120078        2.08469358        0.17712125
 C           -3.15891700       -0.76445005        0.14444617
 C           -2.70524274        0.50614425       -0.19961593
 C           -2.05303027       -2.62120909       -0.62996141
 C           -3.21185151       -1.78677618       -0.87743597
 C            0.30182448       -2.29962885       -1.00666406
 C           -0.98391597       -2.54640737       -1.51389992
 C            2.08864714       -0.69868725       -1.18739190
 C            1.24204389       -1.63308671       -1.79533751
 C            2.55379538        1.64469399       -1.02321536
 C            1.52543150        2.66219185       -0.96211370
 C            2.28498028        0.54012120       -1.81359262
 C           -0.81841607        2.25973399       -1.21007854
 C            0.43808100        2.47403313       -1.78617399
 C           -2.78139613        0.89318248       -1.54374690
 C           -1.85446602        1.82151551       -2.04359030
 C           -3.43803257       -1.37879973       -2.17085176
 C           -3.47883006        0.04742836       -2.41807174
 C           -1.26707716       -2.27697077       -2.85704328
 C           -2.57453260       -1.91057084       -3.20373982
 C            1.04834464       -1.56135743       -3.17107941
 C           -0.20917610       -2.02239286       -3.72658359
 C            1.59740440        0.78654886       -3.00144036
 C            0.69732559        1.86485828       -3.00369094
 C            1.36107355       -0.30763262       -3.82270230
 C           -1.67282640        1.96594869       -3.42710002
 C           -0.31790265        1.92790623       -3.94194464
 C           -3.35007772        0.19330565       -3.85503673
 C           -2.82917084       -1.07267386       -4.36244253
 C           -2.51242364        1.24640689       -4.36354368
 C           -0.42633631       -1.29148409       -4.96819586
 C            0.49496801       -0.16742023       -4.97702951
 C           -0.28766140        1.04181344       -5.08577875
 C           -1.74782168       -0.78028576       -5.27507448
 C           -1.65583525        0.66607616       -5.38803560
