   70
C70 / DATE: 7/ 1/2024 / Origin: Program Fullerene / C70 from database
 C            1.60429446        0.03473698        4.57135919
 C            0.79367771       -1.16467414        4.47417526
 C            1.39142959       -2.03247597        3.47595325
 C            2.65180096       -0.05649413        3.57004136
 C            2.56245420       -1.35212672        2.93651331
 C            2.56330567        1.11046228        2.72552019
 C            0.76036559        1.16392835        4.22310864
 C            1.38415654        1.86414164        3.11589187
 C           -0.58450626       -0.75712755        4.29650236
 C           -0.59417129        0.67600673        4.04416378
 C           -1.41078737       -1.56671468        3.53668063
 C            0.56428937       -2.74099002        2.60420830
 C           -0.82426758       -2.62963725        2.72558400
 C            1.10673688       -3.18625232        1.40100770
 C            2.81746740       -1.45232932        1.57230250
 C            2.33795036       -2.57797080        0.92389954
 C            2.81243749        0.97203425        1.36983034
 C            3.06465570       -0.29451164        0.82043470
 C            2.34097785        1.97384479        0.53466051
 C            0.56646242        2.37342188        2.10920646
 C            1.10934982        2.56219494        0.83337318
 C           -1.33620760        1.17689608        2.97649092
 C           -0.81715243        2.24551323        2.24302230
 C           -2.45329742       -0.94734826        2.74064362
 C           -2.36880846        0.40829041        2.42901005
 C           -1.66709251       -2.78894701        1.54720154
 C           -2.79994109       -1.89068260        1.69716790
 C            0.24278005       -3.38754176        0.24746604
 C           -1.07267057       -2.95487372        0.29841840
 C            2.31937691       -2.61114162       -0.52088965
 C            1.03015390       -3.13854454       -0.94175392
 C            3.25083418       -0.38983378       -0.56782613
 C            2.87320246       -1.56376558       -1.24442232
 C            2.82742035        2.01070789       -0.76061515
 C            3.43832516        0.80178482       -1.27650709
 C            1.98933197        2.55606759       -1.80925118
 C            0.28188513        3.01004191       -0.20092443
 C            0.64924842        2.78548005       -1.52975310
 C           -1.63194341        2.86844487        1.31039160
 C           -1.02306927        3.38207371        0.09750051
 C           -3.08303873        0.90058938        1.33333630
 C           -2.87102278        2.21655437        0.93150740
 C           -3.43086394       -1.41520764        0.56284131
 C           -3.71742516        0.00657699        0.46599123
 C           -1.66171436       -2.38905344       -0.83630829
 C           -2.93939578       -1.83736043       -0.73492469
 C            0.42706167       -2.59508879       -2.06960295
 C           -0.92098542       -2.21974197       -2.01594637
 C            2.56453845       -1.52787434       -2.60333178
 C            1.26750521       -2.02969252       -3.02999894
 C            3.30162695        0.83674989       -2.71926647
 C            2.35412976        1.89377625       -3.04509487
 C            2.87999019       -0.36262628       -3.39978645
 C            0.73860360       -1.11172351       -4.02565737
 C            1.30221788        1.31706525       -3.85573118
 C            1.70487684       -0.03803581       -4.19147908
 C           -0.32506307        2.45225647       -2.48166311
 C           -0.02440080        1.55047119       -3.50793735
 C           -2.02247380        3.33675631       -0.94984591
 C           -3.17442015        2.61455660       -0.43276421
 C           -1.66098467        2.75031084       -2.22519014
 C           -3.83814309        0.31903731       -0.95174434
 C           -3.37686623       -0.84327595       -1.69816012
 C           -3.53592334        1.59781085       -1.40161599
 C           -2.68017933        1.77165747       -2.56497312
 C           -1.47658354       -1.51035911       -3.08153168
 C           -0.60696403       -0.78625841       -3.98766887
 C           -0.98260356        0.61520271       -3.89628173
 C           -2.64389882       -0.67339320       -2.86128738
 C           -2.31805520        0.66823054       -3.32567085
