   70
C70 / DATE: 7/ 1/2024 / Origin: Program Fullerene / C70 from database
 C            1.20740183       -0.11307644        5.79490066
 C            0.30503880       -1.24734786        5.78830899
 C            0.99933127       -2.35155910        5.14989820
 C            2.39158126       -0.47676168        5.02906772
 C            2.24570671       -1.84378531        4.59535215
 C            2.57516386        0.53410992        4.01250189
 C            0.55138147        0.97341760        5.08787304
 C            1.51399003        1.51872360        4.16260840
 C           -0.83676115       -0.89867237        4.95575523
 C           -0.69045734        0.48198524        4.53209596
 C            0.18352780       -2.79042506        4.03570745
 C           -0.96700298       -1.91302907        3.92863227
 C            2.24331121       -2.11628592        3.16575508
 C            1.04685296       -2.88729869        2.87654181
 C            2.93488183        0.16777080        2.71262626
 C            2.62657767       -1.12424842        2.24993326
 C            2.95329460        1.21006571        1.79440400
 C            1.04965073        2.10498419        2.99534869
 C            2.00997210        2.29201581        2.01558629
 C           -0.97736946        0.79803907        3.20563644
 C           -0.26307154        1.82602230        2.57730862
 C           -1.33193326       -1.51272726        2.64839800
 C           -1.59744333       -0.16476894        2.40703259
 C            0.46907168       -2.69599675        1.63452956
 C           -0.85351235       -2.26316692        1.58052741
 C            2.26319834       -1.31097446        0.90258017
 C            1.29804755       -2.27857648        0.60734811
 C            2.94679982        0.92475378        0.37302010
 C            2.56117553       -0.33058546       -0.05713579
 C            1.59179637        2.77816973        0.72968541
 C            2.37277971        2.08300653       -0.27863053
 C           -0.65455862        2.20206239        1.28564873
 C            0.23681621        2.94174920        0.49995524
 C           -1.96673055        0.19030150        1.11156246
 C           -1.67652971        1.47453466        0.65751383
 C           -1.36634571       -1.98199574        0.32075067
 C           -2.12202293       -0.82490951        0.16773526
 C            0.76414835       -2.31901244       -0.66961363
 C           -0.62337584       -2.40037723       -0.77454253
 C            2.06482101       -0.46910509       -1.35996306
 C            1.45537042       -1.67575599       -1.68300338
 C            1.80018142        1.94064821       -1.53509866
 C            1.76515824        0.67485176       -2.12814153
 C           -0.12169974        3.24722071       -0.80075266
 C            0.79517348        2.84246265       -1.85526461
 C           -2.08644164        1.82901660       -0.62944905
 C           -1.44303902        2.88846965       -1.25579874
 C           -2.52621921       -0.48313382       -1.12083235
 C           -2.71618378        0.86743039       -1.42568379
 C           -1.18899208       -2.26240360       -2.03527054
 C           -2.27619479       -1.39090156       -2.15669465
 C            1.00467542       -1.87715285       -2.97697391
 C           -0.32822299       -2.42194337       -3.11584676
 C            1.13303015        0.51853169       -3.37399680
 C            1.06483019       -0.76940245       -3.90332659
 C            0.00819309        2.62740941       -3.04683469
 C           -1.37841868        2.91450926       -2.70314397
 C            0.28380992        1.53346189       -3.86028004
 C           -3.11236916        1.21876294       -2.71814255
 C           -2.36724726        2.25920349       -3.41370879
 C           -2.84140815       -1.15771816       -3.40891837
 C           -3.38175286        0.16013414       -3.67808083
 C           -0.78464892       -2.09643498       -4.44953826
 C            0.12773066       -1.08433409       -4.96816314
 C           -2.13224241       -1.59407611       -4.60148636
 C           -0.62711284        1.27737019       -4.88908433
 C           -1.99973655        1.72260915       -4.70945393
 C           -2.87389675        0.59714132       -4.96787001
 C           -0.67339373       -0.02169987       -5.52462244
 C           -2.05813639       -0.47130244       -5.51678267
