   70
C70 / DATE: 7/ 1/2024 / Origin: Program Fullerene / C70 from database
 C            1.27976824        0.10996722        4.81775318
 C            0.54265494       -1.11588642        4.57084012
 C            1.35562638       -1.95974452        3.71178491
 C            2.56187276       -0.01371430        4.15204961
 C            2.69030391       -1.38381026        3.68865809
 C            2.67027628        1.05133867        3.16741386
 C            0.55270384        1.18826300        4.17476731
 C            1.39317504        1.74161062        3.13012238
 C           -0.77851441       -0.74502199        4.10820152
 C           -0.75210346        0.67830816        3.79946012
 C           -1.40684026       -1.59023595        3.20804060
 C            0.79218534       -2.45897796        2.53304578
 C           -0.59190369       -2.51872394        2.43097530
 C            1.57413477       -2.55879121        1.37830115
 C            3.47839468       -1.60260207        2.57426475
 C            2.95538160       -2.44272832        1.51433843
 C            3.31611484        0.76303759        1.96891904
 C            4.02175980       -0.44151184        1.89701959
 C            2.86422633        1.37011726        0.78829126
 C            0.81480926        2.01215797        1.89813939
 C            1.60191564        1.97641012        0.75028665
 C           -1.31059373        1.10581786        2.59750161
 C           -0.57331757        1.95727479        1.76873565
 C           -2.37056524       -1.01926888        2.29086400
 C           -2.33638691        0.34851634        2.03296224
 C           -1.20464597       -2.65306359        1.12232991
 C           -2.45788826       -1.92480407        1.16529820
 C            0.97495254       -2.46980382        0.10548155
 C           -0.41834789       -2.56237278       -0.02286202
 C            1.73866245       -2.14932726       -1.02451198
 C            3.76906549       -2.16464146        0.35049221
 C            4.49356158       -0.92595221        0.61811736
 C            3.12031487       -2.01697698       -0.93087985
 C            3.53612142        1.12762964       -0.40613557
 C            4.34241604       -0.07165343       -0.53609533
 C            3.73298460       -0.87749109       -1.57636178
 C            2.82298717        1.27699558       -1.65811371
 C            2.87006223       -0.00301873       -2.33523980
 C            1.02202579        2.34234235       -0.46903505
 C            1.60612903        1.94503515       -1.67754389
 C           -1.14897328        2.38452250        0.57624798
 C           -0.31097773        2.76561248       -0.47726927
 C           -2.92472048        0.80171224        0.85517647
 C           -2.46159391        1.99486549        0.30643695
 C           -2.95733266       -1.41927501       -0.01842939
 C           -3.50648598       -0.14236677        0.00820672
 C           -1.04056173       -2.21292918       -1.23193297
 C           -2.40233637       -1.86757612       -1.21046492
 C            1.09966568       -1.60830694       -2.13914218
 C            1.65943778       -0.49805410       -2.78809332
 C           -0.24998411       -1.88429541       -2.34073074
 C            0.76709495        1.70720380       -2.76811684
 C            0.78800143        0.42974801       -3.34204702
 C           -0.87819764        3.13207139       -1.69556472
 C           -0.35619723        2.51377511       -2.89878302
 C           -3.11605357        2.52174547       -0.80087038
 C           -2.32332794        3.18503220       -1.81478125
 C           -4.19313585        0.29577909       -1.11716044
 C           -4.10185666        1.69823562       -1.47996164
 C           -3.06303644       -1.53319422       -2.38879279
 C           -4.07647411       -0.48847210       -2.33556002
 C           -0.84610995       -1.34777030       -3.47956638
 C           -0.34462793       -0.07617302       -3.96215948
 C           -2.28757155       -1.32616094       -3.58933668
 C           -1.48258027        2.07390449       -3.70352643
 C           -2.68897157        2.62649042       -3.10700624
 C           -3.85128763        1.77895511       -2.91009485
 C           -3.84201723        0.42779384       -3.43968301
 C           -1.47960357        0.78586905       -4.22505036
 C           -2.67366389       -0.04344142       -4.15962058
