   70
C70 / DATE: 7/ 1/2024 / Origin: Program Fullerene / C70 from database
 C            1.56408981       -0.08338860        4.56488757
 C            0.73927864       -1.26317906        4.42863865
 C            1.26913845       -2.06277251        3.33674821
 C            2.58175603       -0.14115935        3.53085490
 C            2.31545947       -1.28667715        2.69201406
 C            2.60621567        1.14964887        2.89598571
 C            0.71866481        1.06505429        4.28023556
 C            1.41434585        1.87256996        3.31646540
 C           -0.63751634       -0.81856986        4.33176828
 C           -0.59249246        0.57600575        3.92142304
 C           -1.51928198       -1.65423215        3.67736197
 C            0.35932340       -2.74320548        2.53975621
 C           -0.96875740       -2.79545821        2.96645263
 C            0.63140370       -2.88299335        1.17863508
 C            2.26800043       -1.10320425        1.31099621
 C            1.48243023       -1.96583284        0.54602298
 C            2.92965368        1.22752946        1.54917728
 C            2.74729231        0.08960875        0.74130563
 C            2.69503694        2.46704914        0.98127372
 C            0.68736842        2.51031385        2.32079400
 C            1.46834657        3.14326343        1.36896867
 C           -1.14732178        0.94831233        2.69028009
 C           -0.53614705        1.94741830        1.91061741
 C           -2.47135392       -1.06133489        2.76405285
 C           -2.14874219        0.14416600        2.13705158
 C           -1.99364439       -3.23240642        2.03723547
 C           -2.98752152       -2.16152580        1.97355485
 C           -0.22459406       -3.67000924        0.41383266
 C           -1.59247767       -3.86692139        0.87005676
 C           -0.25334865       -3.50358816       -1.02501620
 C            1.47313128       -1.83268611       -0.84270930
 C            0.51938302       -2.51060753       -1.60813997
 C            2.72006555        0.23463575       -0.65713032
 C            2.21571724       -0.81344834       -1.44336776
 C            2.84653054        2.62740155       -0.43945542
 C            2.97094123        1.49580944       -1.22938402
 C            0.85654450        3.64274509        0.16397230
 C            1.90885476        3.66129808       -0.83828407
 C           -1.01973284        2.20565039        0.61516893
 C           -0.40369082        3.18005378       -0.18460674
 C           -2.61469364        0.39236179        0.84335180
 C           -2.02848588        1.39921144        0.07103626
 C           -3.60940639       -1.87088575        0.77111617
 C           -3.45961686       -0.53457090        0.21875653
 C           -2.46477929       -3.82182011       -0.28739986
 C           -1.63315175       -3.63753100       -1.46317763
 C           -3.51495390       -2.82276789       -0.32272602
 C           -3.41999429       -0.66055092       -1.22773260
 C           -2.20630231       -2.56502764       -2.26022227
 C           -3.37317923       -2.07086238       -1.55619536
 C            0.02516717       -1.89849917       -2.75479220
 C           -1.33801078       -1.63515103       -2.82037642
 C            2.10944045       -0.66514555       -2.82485313
 C            0.87417997       -1.07257602       -3.46504457
 C            2.89730625        1.67804377       -2.60677237
 C            2.52057306        0.57173918       -3.45167988
 C            1.55724274        3.74972225       -2.17512971
 C            2.22637925        2.86640823       -3.11734024
 C           -0.82544041        3.36294836       -1.49845053
 C            0.14423947        3.76506673       -2.51073207
 C           -2.25642788        1.39872808       -1.30857010
 C           -2.59763955        0.20614826       -1.92496878
 C           -1.74183005       -0.30091136       -2.90742576
 C           -1.69448976        2.37882293       -2.10267920
 C            0.31047415        0.11750760       -4.07138818
 C            1.42666384        1.01711543       -4.30571509
 C            1.24879518        2.43864812       -4.10306941
 C           -0.04894436        2.92026326       -3.67917669
 C           -0.91250376        0.59548717       -3.58900611
 C           -1.09296091        1.96274361       -3.35713141
