   70
C70 / DATE: 7/ 1/2024 / Origin: Program Fullerene / C70 from database
 C            1.29790572       -0.06195710        4.48072004
 C            2.61435897       -0.27654425        3.91107440
 C            2.63979130       -1.62080261        3.36430928
 C            0.48170589       -1.22512460        4.16626803
 C            1.27827139       -2.12901134        3.36754967
 C           -0.77029539       -0.75266411        3.62428770
 C            0.54944576        1.12005149        4.09313228
 C           -0.78978832        0.69473633        3.72247973
 C            1.17043847        2.10604334        3.33955288
 C            3.09333222        0.62783278        2.87991197
 C            2.42973902        1.82594645        2.65784017
 C            3.34942749       -1.57452551        2.09951499
 C            3.50578420       -0.17387666        1.73859282
 C            2.96042484       -2.46330005        1.11086231
 C            0.75910888       -2.63712056        2.17841096
 C            1.66321758       -3.11246991        1.23641936
 C           -1.28083046       -1.33286587        2.47270867
 C           -0.53338257       -2.28577567        1.76137588
 C           -2.31831959       -0.66845499        1.83043889
 C           -1.49590990        1.40751698        2.75478638
 C           -2.43630138        0.71711606        1.98097695
 C            0.36067732        2.90849445        2.44320261
 C           -0.99644349        2.63751770        2.30307237
 C            2.31210161        2.32236531        1.29914691
 C            1.13834779        3.16899387        1.24280891
 C            3.18166883        0.23350500        0.44199122
 C            2.57747427        1.48007267        0.22837602
 C            3.09094524       -2.06065734       -0.27644875
 C            3.20876376       -0.71111686       -0.58891933
 C            1.20252276       -3.42519072       -0.09965741
 C            2.17016991       -2.88180166       -1.04111181
 C           -1.02250906       -2.76102269        0.53340559
 C           -0.14799185       -3.32735142       -0.40378703
 C           -2.98875253       -1.32265167        0.80719052
 C           -2.32459243       -2.43443385        0.15266319
 C           -3.69058748       -0.55514211       -0.20857109
 C           -3.29201769        1.43411978        1.15162120
 C           -3.80384042        0.81554473       -0.05863206
 C           -1.65860587        3.29806835        1.27354852
 C           -2.94312297        2.79946845        0.82621846
 C            0.45899776        3.31206025        0.03675946
 C           -0.88963656        3.66930498        0.09488275
 C            2.02797289        1.78427913       -1.01550501
 C            0.95656590        2.68394408       -1.11118146
 C            2.92611206       -0.31196608       -1.88923745
 C            2.40306756        1.02072061       -2.11481550
 C            1.71534263       -2.42947201       -2.27569771
 C            2.21595016       -1.22429752       -2.77713656
 C           -0.49309723       -3.35404826       -1.75409996
 C            0.49183836       -2.91571643       -2.73167665
 C           -2.67961939       -2.38310671       -1.25520690
 C           -3.30648855       -1.09315427       -1.50007431
 C           -1.79807684       -2.89267252       -2.19209811
 C           -2.78988082       -0.24548444       -2.48160683
 C           -3.44598913        1.67451248       -1.17411181
 C           -3.00423509        2.94307647       -0.61950385
 C           -1.74375719        3.50466069       -1.07060165
 C           -2.76618664        1.13601538       -2.26540224
 C            0.23764488        2.78282580       -2.30199748
 C           -1.19046961        3.03216449       -2.24956375
 C           -1.83814627        1.92934465       -2.94275065
 C            1.55729951        0.97567252       -3.29390828
 C            1.42594269       -0.41573866       -3.69797119
 C            0.46528498        1.82582765       -3.37180147
 C           -0.83169432        1.30794665       -3.78587685
 C           -0.21109752       -2.22755472       -3.79782390
 C           -1.62054650       -2.17804515       -3.44422518
 C           -2.05406858       -0.79408996       -3.53037234
 C            0.20646243       -0.88934947       -4.16460747
 C           -0.96782343       -0.03119182       -4.12011905
