   70
C70 / DATE: 7/ 1/2024 / Origin: Program Fullerene / C70 from database
 C            1.27859273        0.14561373        4.71848478
 C            2.54046370        0.00861924        4.02305156
 C            2.55376006       -1.29257138        3.37381117
 C            0.46380394       -1.01465611        4.39362602
 C            1.23676248       -1.87824726        3.51468583
 C           -0.82947131       -0.54035020        3.93006852
 C            0.48027326        1.32945469        4.47784312
 C           -0.85510538        0.89808411        4.09588746
 C            0.92211638        2.29981881        3.48985488
 C            2.91580832        0.99855173        3.02753036
 C            2.14959801        2.15170942        2.83709563
 C            3.08599807       -1.11940030        2.03609324
 C            3.41594094        0.28327495        1.86217145
 C            2.48415860       -1.78491468        0.98069816
 C            0.61532275       -2.39370941        2.38191663
 C            1.36304155       -2.58779144        1.21702211
 C           -1.34852912       -1.08764545        2.76267469
 C           -0.76188736       -2.24723663        2.26655540
 C           -2.08603131       -0.28240149        1.88796123
 C           -1.28149074        1.71142382        2.97338588
 C           -0.24827225        2.69550544        2.71836644
 C           -1.88423131        1.09830693        1.88630335
 C           -0.06429877        3.16125770        1.42006308
 C            2.35336869        2.87610782        1.66718115
 C            1.22163629        3.55611776        1.06261950
 C            3.26986621        0.87224386        0.60759303
 C            3.08668429        2.24934472        0.57881737
 C            2.69952107       -1.29454504       -0.29981447
 C            2.84475578        0.08602959       -0.47734873
 C            2.31316720       -2.08765818       -1.37066731
 C            0.75942570       -3.23177156        0.13237297
 C            1.39114676       -3.17737200       -1.10939616
 C           -1.40694624       -2.91724076        1.24317192
 C           -0.60210240       -3.53571489        0.20437207
 C           -2.67400253       -0.87803231        0.76917565
 C           -2.51512203       -2.25234455        0.58776088
 C           -3.07365859       -0.08482165       -0.31195090
 C           -1.91430633        1.77692786        0.67691714
 C           -0.97665242        2.79080536        0.41860852
 C           -2.69597621        1.26536084       -0.35241128
 C           -0.77633434        3.23657596       -0.89711502
 C            1.54562397        3.75344221       -0.33358057
 C            2.67360443        2.89066231       -0.64897478
 C            0.52060114        3.50210306       -1.31907928
 C            2.34572336        0.68415228       -1.64691770
 C            2.28647876        2.06012860       -1.76758260
 C            1.09246876        2.64110129       -2.34187587
 C            1.88176731       -1.44304845       -2.59386177
 C            1.62730056       -0.08140759       -2.55805416
 C            0.62942130       -3.40278044       -2.32596789
 C            0.95149291       -2.32797244       -3.25308189
 C           -1.41939949       -3.58218381       -1.00220873
 C           -2.63970839       -2.83096757       -0.73893358
 C           -0.81470869       -3.50605741       -2.24961355
 C           -3.61222684       -0.70962985       -1.43982251
 C           -3.21880181       -2.07289438       -1.74537886
 C           -3.68171717       -0.00465647       -2.70209791
 C           -2.78510920        1.99862084       -1.52871630
 C           -1.66787648        2.84223644       -1.88701466
 C           -3.22849439        1.36529751       -2.75431273
 C            0.21408878        1.83289193       -3.05918580
 C            0.47918895        0.45491601       -3.17169810
 C           -1.10490692        2.26964597       -3.09907047
 C           -2.11498907        1.42618728       -3.69020446
 C           -0.28941912       -1.77748166       -3.74477126
 C           -1.37006594       -2.62770700       -3.26591934
 C           -2.62741022       -2.06730467       -3.07666458
 C           -2.89086437       -0.76241668       -3.65849172
 C           -0.47263351       -0.39657402       -3.76958130
 C           -1.76022270        0.06898765       -4.03237493
