   70
C70 / DATE: 7/ 1/2024 / Origin: Program Fullerene / C70 from database
 C            1.33353662        0.01768518        4.52631671
 C            2.61533130       -0.15989702        3.87199105
 C            2.58563122       -1.43200033        3.16885457
 C            0.50024238       -1.12305003        4.19117131
 C            1.26619153       -2.00578620        3.32722736
 C           -0.77668419       -0.62591771        3.70401754
 C            0.57329916        1.22113127        4.24882652
 C           -0.72998922        0.82324602        3.72739655
 C            1.22105022        2.30910080        3.67901548
 C            3.07232876        0.85603737        2.93878445
 C            2.45511920        2.09945516        2.92558552
 C            3.07682987       -1.21433445        1.82427926
 C            3.36379500        0.20013447        1.67453987
 C            2.45382742       -1.86400961        0.76631287
 C            0.63006158       -2.52836764        2.20807623
 C            1.33928350       -2.67661698        1.01137859
 C           -1.34975370       -1.25911055        2.61109355
 C           -0.75361688       -2.42580587        2.14440056
 C           -2.15204961       -0.52441171        1.73871323
 C           -1.30478947        1.54396259        2.67969941
 C           -2.00936200        0.86950548        1.67604187
 C            0.42189001        3.26645770        2.94199778
 C           -0.87912878        2.84865160        2.44955622
 C            2.31833401        2.79691745        1.66017859
 C            1.20157717        3.70240375        1.79598068
 C            3.02503893        0.81359809        0.46980235
 C            2.45833603        2.09493004        0.46569010
 C            2.64483774       -1.35277159       -0.51260715
 C            2.90818137        0.01330572       -0.66646492
 C            2.21445386       -2.11345502       -1.59078774
 C            0.69451155       -3.29535370       -0.06768705
 C            1.20603013       -3.13091271       -1.35739137
 C           -1.41208007       -3.15363853        1.17152325
 C           -0.61977918       -3.73224722        0.10264640
 C           -2.83454849       -1.21045598        0.73028820
 C           -2.59383205       -2.57365681        0.56344015
 C           -3.47217221       -0.49909552       -0.28161078
 C           -2.45455301        1.57331003        0.54967715
 C           -3.26819478        0.93317230       -0.38017482
 C           -1.02850283        3.41680125        1.12618840
 C            0.29410809        3.82807262        0.67737637
 C           -1.86080923        2.79156378        0.20683409
 C            1.82437538        2.57049769       -0.69097921
 C            0.70801746        3.41517382       -0.58437416
 C            2.70588700        0.63302836       -1.89400111
 C            2.11663458        1.95849342       -1.90869840
 C            1.93488082       -1.47940931       -2.86692224
 C            2.16173880       -0.11878355       -3.01148556
 C            0.31897455       -3.14955667       -2.51481617
 C            0.72582111       -2.07810811       -3.40996673
 C           -1.49449523       -3.87698909       -1.04834043
 C           -2.73404068       -3.17453838       -0.75108980
 C           -1.02939678       -3.43589657       -2.34732730
 C           -3.52185499       -1.03926296       -1.63554032
 C           -3.05199853       -2.32340065       -1.87998516
 C           -2.03455684       -2.53902014       -2.89871339
 C           -3.14713460        1.27048635       -1.79045370
 C           -3.19398576        0.03562280       -2.55595371
 C           -1.64016720        3.08104691       -1.13740327
 C           -0.28068722        3.36665677       -1.56220524
 C           -2.27752547        2.28313663       -2.16768595
 C            1.15549948        2.00535723       -2.99863855
 C            1.17347302        0.71694091       -3.67399146
 C           -0.04540244        2.67190892       -2.81301014
 C           -1.29669962        2.04722237       -3.21730491
 C           -0.23644927       -1.27544084       -4.01363056
 C           -1.64664803       -1.48757326       -3.72253956
 C           -2.27546959       -0.18334953       -3.57824279
 C           -0.01352189        0.15682834       -4.13583511
 C           -1.27924900        0.83038103       -3.88904350
