   70
C70 / DATE: 7/ 1/2024 / Origin: Program Fullerene / C70 from database
 C            1.37336284       -0.11134535        4.12392780
 C            2.45390689       -0.20144780        3.15898587
 C            2.33795237       -1.48409941        2.47740709
 C            0.50131410       -1.25695065        3.92061054
 C            1.07105763       -2.07392952        2.86405228
 C           -0.85064941       -0.76146851        3.75359322
 C            0.54586570        1.07873827        4.14957279
 C           -0.84414654        0.64971228        4.09724615
 C            0.94909755        2.19421264        3.42752503
 C            2.83277558        0.92240822        2.42493943
 C            2.09806213        2.10676970        2.53545085
 C            3.58858153        0.72172504        1.27313233
 C            2.76565372       -1.57508002        1.15468025
 C            3.68427996       -0.62302402        0.73184848
 C            1.96154306       -2.23963710        0.21140013
 C            0.23883228       -2.55885010        1.86816006
 C            0.80562981       -2.89973638        0.64268150
 C           -1.58515877       -1.19912087        2.65540520
 C           -1.13508892       -2.31012558        1.94549666
 C           -2.53274225       -0.35535454        2.06909643
 C           -1.79985207        1.47924657        3.52814907
 C           -2.77422957        0.89883305        2.62046977
 C           -0.04872408        3.03575887        2.78674581
 C           -1.39853984        2.76245896        2.97136891
 C            1.78541934        2.86399067        1.33054345
 C            0.43655223        3.37124882        1.45415759
 C            3.38440922        1.60739733        0.14003512
 C            2.23701198        2.38701333        0.10800957
 C            3.99266224       -0.49988963       -0.67271004
 C            3.79960647        0.89633270       -1.04387305
 C            2.24262011       -2.15061501       -1.16456992
 C            3.24842946       -1.29922894       -1.61856228
 C            1.31974367       -2.63134221       -2.10024209
 C            0.04281591       -3.62450275       -0.26252574
 C            0.27031368       -3.44494786       -1.68192092
 C           -1.96971595       -2.84501861        0.97420571
 C           -1.38986434       -3.69316119       -0.04896797
 C           -3.02075422       -0.65064682        0.79262974
 C           -2.92445667       -1.95774751        0.33259445
 C           -3.22794389        0.38165154       -0.12782068
 C           -3.24315598        1.96036362        1.75505839
 C           -2.32593913        3.08122004        1.90123512
 C           -3.37897560        1.68874902        0.33491707
 C           -0.42197931        3.29352289        0.36554916
 C           -1.79721640        3.37584931        0.58202363
 C           -2.70400151        2.76503252       -0.36929430
 C            1.33579941        2.26516362       -0.96364853
 C            0.05903158        2.84112624       -0.86718804
 C            2.93372817        0.91477817       -2.19928122
 C            2.96599300       -0.42868241       -2.74222551
 C            1.71087774        1.58156298       -2.13709693
 C            1.26886636       -2.05364789       -3.37068538
 C            1.96132104       -0.80030783       -3.61261067
 C           -0.00724367       -1.96289579       -4.05646557
 C           -1.03115882       -3.34610985       -2.33671091
 C           -2.04609690       -3.38191975       -1.30464881
 C           -2.86488716       -2.20076418       -1.09678980
 C           -1.19235847       -2.44608082       -3.37846262
 C           -2.94244613        0.17433058       -1.48251892
 C           -2.72878488       -1.12099595       -1.96462303
 C           -2.09329917       -1.31356184       -3.19694737
 C           -2.24496665        2.52050907       -1.64878852
 C           -0.83338599        2.72550418       -1.92941826
 C           -2.60963353        1.26838682       -2.28026347
 C            0.75601680        1.28602223       -3.11500579
 C            0.94106553        0.17815636       -3.94423669
 C           -0.22055999       -0.56596208       -4.39923360
 C           -1.52934924       -0.17786773       -3.91129141
 C           -0.49894940        1.87863189       -3.05742964
 C           -1.68394463        1.08965896       -3.37684695
