   70
C70 / DATE: 7/ 1/2024 / Origin: Program Fullerene / C70 from database
 C            1.27599602       -0.01607207        4.09100749
 C            2.42377053       -0.25876859        3.23578502
 C            2.35620491       -1.64433135        2.79710591
 C            0.41899430       -1.18942196        4.02681215
 C            1.02950137       -2.13987197        3.12727854
 C           -0.92257331       -0.74493333        3.74152038
 C            0.45387709        1.15477235        3.85183866
 C           -0.91711958        0.70713207        3.67580376
 C            0.94259894        2.16048152        3.03750967
 C            2.83424524        0.72060535        2.33644197
 C            2.19595817        1.96269131        2.31879570
 C            3.60577304        0.33878211        1.24384335
 C            2.91758903       -2.00594848        1.57674937
 C            3.69270997       -1.07043991        0.88747108
 C            2.35589734       -3.08312106        0.89383726
 C            0.26459429       -2.72941774        2.12436127
 C            0.95328258       -3.40507815        1.11719927
 C           -1.68842095       -1.43195804        2.81043185
 C           -1.05035060       -2.28395382        1.88757694
 C           -2.88308393       -0.81915079        2.45538860
 C           -1.75181522        1.32573586        2.74296377
 C           -2.90164049        0.63466852        2.37634667
 C            0.02786053        2.84459390        2.14343708
 C           -1.22273864        2.28642692        1.87188078
 C            2.10394745        2.70444245        1.06965481
 C            0.82395088        3.39110901        1.05982508
 C            3.53440141        1.10794940        0.01117974
 C            2.59843859        2.13327279       -0.09987746
 C            3.84794865       -1.15217123       -0.55969437
 C            3.75769156        0.19714848       -1.09722053
 C            2.63688514       -3.27583723       -0.51734811
 C            3.28934385       -2.21489175       -1.25788529
 C            0.33409616       -3.56816052       -0.18330254
 C            1.37981434       -3.57839511       -1.18274541
 C           -1.63968169       -2.53588600        0.63701195
 C           -0.83627148       -2.87823379       -0.43874130
 C           -3.63992390       -1.33663652        1.34180119
 C           -2.94433081       -2.14869484        0.37382390
 C           -3.60738177        1.00181538        1.16659475
 C           -4.21930190       -0.20582089        0.64087358
 C           -1.84642244        2.55935181        0.64485139
 C           -3.02193436        1.89595794        0.27893923
 C            0.21023565        3.65227957       -0.14948055
 C           -1.20877017        3.38312956       -0.28278838
 C            1.96563245        2.38161569       -1.32398229
 C            0.85260896        3.21673166       -1.37770169
 C            3.10446297        0.42217940       -2.29890405
 C            2.24946363        1.58952356       -2.43269277
 C            2.49805859       -1.95964947       -2.45154559
 C            1.25141305       -2.69479348       -2.32228772
 C            2.46491682       -0.68345625       -2.99714374
 C           -1.03601048       -2.25018796       -1.67365573
 C            0.04854150       -2.02607527       -2.53452261
 C           -3.25924917       -1.63655959       -0.94968375
 C           -4.11478845       -0.46569080       -0.78042964
 C           -2.26631873       -1.63630361       -1.93498689
 C           -3.41516032        1.85908404       -1.06282299
 C           -3.93559635        0.61832569       -1.62458258
 C           -1.47475095        3.20813923       -1.69733494
 C           -0.19685684        2.94767916       -2.35189032
 C           -2.60111802        2.50127673       -2.08241617
 C            1.17960424        1.25103874       -3.35735938
 C            1.21653353       -0.18843361       -3.55262010
 C            0.04309227       -0.91697689       -3.38074386
 C           -0.05897899        1.87602867       -3.23795656
 C           -2.36751366       -0.74364479       -2.99912375
 C           -3.26110313        0.39514006       -2.88581097
 C           -2.50316939        1.59282967       -3.20698308
 C           -1.15863205       -0.27939820       -3.65141091
 C           -1.18892728        1.17642645       -3.65826614
