   70
C70 / DATE: 7/ 1/2024 / Origin: Program Fullerene / C70 from database
 C            1.70346472       -0.01715967        4.65699604
 C            0.87192560       -1.19933709        4.52615468
 C            1.35161823       -1.96798329        3.38680283
 C            2.67252721       -0.04503811        3.58147771
 C            2.53753421       -1.30872159        2.87582803
 C            2.52728111        1.17533524        2.80478134
 C            0.85506028        1.14079484        4.44676050
 C            1.31618271        1.83319839        3.25044806
 C           -0.51338606       -0.76809968        4.53825063
 C           -0.52257987        0.69059324        4.49866997
 C           -1.42462196       -1.48118782        3.76861975
 C            0.42689914       -2.48195748        2.48425988
 C           -0.92615231       -2.47387517        2.82935368
 C            0.79965602       -2.66576502        1.14887800
 C            2.75607494       -1.28755930        1.50550031
 C            1.98419849       -2.09646678        0.66581283
 C            2.76543664        1.08424006        1.44408905
 C            3.28021287       -0.11644785        0.97413042
 C            2.00564717        1.85602957        0.56249965
 C            0.37765138        2.24262834        2.30421886
 C            0.71918992        2.25112749        0.94267963
 C           -1.44487105        1.34386898        3.69560463
 C           -0.96039572        2.26688439        2.67698729
 C           -2.52408034       -0.78579264        3.11809182
 C           -2.55112732        0.59962921        3.11709410
 C           -1.93524518       -2.63632024        1.79917097
 C           -2.84339930       -1.50367805        1.89207996
 C           -0.12764627       -3.18418662        0.24973015
 C           -1.54589251       -3.08272164        0.54909339
 C            0.04247573       -2.94038603       -1.17136210
 C            2.21122391       -2.01350188       -0.71567165
 C            1.15746214       -2.24565276       -1.60860207
 C            3.71973404       -0.14590019       -0.33060917
 C            3.31387184       -1.27504329       -1.14133666
 C            2.35634739        1.81757860       -0.78840381
 C            3.45437274        1.02368739       -1.13499199
 C            1.41392987        2.16541501       -1.76427269
 C           -0.26735505        2.45829422       -0.03658804
 C            0.07504942        2.38072183       -1.39790502
 C           -1.97487306        2.34863578        1.65706252
 C           -2.94370154        1.29337658        1.90838669
 C           -1.61188539        2.59521112        0.34128686
 C           -3.18403419       -0.79874693        0.73527095
 C           -3.42548147        0.58377806        0.81482048
 C           -2.20043398       -2.54009089       -0.62532075
 C           -1.25443212       -2.60263087       -1.72742115
 C           -3.03069906       -1.42854974       -0.51160300
 C           -1.33387581       -1.64922597       -2.73766861
 C            1.08800888       -1.55022047       -2.82081605
 C           -0.16220477       -1.21337739       -3.36720712
 C            3.40054323       -0.84041657       -2.52330706
 C            3.64915852        0.59688979       -2.50199800
 C            2.26162646       -1.05496182       -3.38616502
 C            1.76529340        2.08686396       -3.11694437
 C            2.83195145        1.19544010       -3.52612352
 C            2.20538792        0.10394719       -4.25274456
 C           -0.26062087       -0.19155326       -4.31382943
 C            0.72850684        1.90546363       -4.10483246
 C            0.91194890        0.57728593       -4.67791839
 C           -0.92931085        2.42123969       -2.38400788
 C           -0.64411629        1.98578911       -3.67304105
 C           -1.31097136        0.78733388       -4.15842358
 C           -2.60342014        2.38031926       -0.60394137
 C           -3.56700041        1.31670213       -0.35521458
 C           -2.26125232        2.35508471       -2.00302184
 C           -3.37269340       -0.75939870       -1.68120952
 C           -2.50291801       -0.88892614       -2.84375150
 C           -2.47866829        0.39833206       -3.52642149
 C           -3.79065845        0.61972638       -1.59718312
 C           -3.10744859        1.35943481       -2.64103308
