   70
C70 / DATE: 7/ 1/2024 / Origin: Program Fullerene / C70 from database
 C            1.56574551        0.14342960        4.94508370
 C            0.77324495       -1.06754035        5.06715295
 C            1.45592579       -2.12291006        4.34307004
 C            2.64974879       -0.12904092        4.01732971
 C            2.62248023       -1.53845339        3.70182651
 C            2.54375020        0.81553267        2.92220400
 C            0.72256125        1.16651432        4.34956833
 C            1.37481888        1.64315334        3.15111608
 C           -0.59081854       -0.74470225        4.69465744
 C           -0.61427689        0.63229509        4.22214938
 C           -1.33900544       -1.68900029        4.00328260
 C            0.71915826       -2.87051640        3.33490076
 C           -0.66178966       -2.76656798        3.28338481
 C            2.59310256       -1.91895141        2.30531200
 C            1.47068510       -2.81110200        2.09338813
 C            2.77895435        0.39360440        1.61628357
 C            2.84969950       -0.97314698        1.32140030
 C            2.36385418        1.24453309        0.59200031
 C            0.59642075        1.96476395        2.04531913
 C            1.23035430        2.02849901        0.80930947
 C           -1.34831249        0.93026936        3.07679511
 C           -0.78371596        1.73554275        2.07220081
 C           -2.40942093       -1.22110381        3.14385268
 C           -2.44278486        0.12252114        2.77224875
 C           -1.32471242       -2.91361386        1.99863717
 C           -2.59888589       -2.23751003        2.12287455
 C            0.80518202       -2.73862471        0.86667827
 C           -0.59273434       -2.77271727        0.81790000
 C            2.57169628       -1.34569135        0.01515925
 C            1.49765916       -2.21063889       -0.22009936
 C            2.68689368        0.89996229       -0.71845753
 C            2.90725468       -0.45268213       -0.98626279
 C            2.26530415        1.74072460       -1.75158685
 C            0.51045006        2.48131225       -0.28728434
 C            1.15055944        2.55991194       -1.52268947
 C           -1.53199498        2.02524449        0.92504829
 C           -0.88739917        2.48278793       -0.23256806
 C           -3.27481909        0.49088623        1.72644644
 C           -2.83445066        1.53682089        0.82116047
 C           -3.27372256       -1.88337135        0.96948558
 C           -3.87243227       -0.56318044        0.92443063
 C           -1.25614600       -2.38617930       -0.35702423
 C           -2.61980866       -2.09832585       -0.31300100
 C            0.86794011       -2.16876789       -1.46305902
 C           -0.52059067       -2.03229324       -1.49574138
 C            2.77116956       -0.91098602       -2.28540637
 C            1.62386885       -1.75730908       -2.55611805
 C            2.66723150        1.42961097       -3.05166227
 C            2.89335653        0.03834858       -3.36716397
 C            1.98052244        2.00313876       -4.19072879
 C            0.44978502        3.12803616       -2.58231560
 C            0.89767840        2.92728026       -3.94843470
 C           -1.61365508        2.53481246       -1.42598322
 C           -0.99778518        3.03390477       -2.56971179
 C           -3.37555825        1.23506525       -0.49428612
 C           -3.87084536       -0.12859235       -0.45554570
 C           -3.16254459       -1.12429433       -1.23984857
 C           -2.63910316        1.61085582       -1.60538001
 C           -1.13166396       -1.27642508       -2.51298273
 C           -2.35881166       -0.65891275       -2.26808941
 C           -2.50077850        0.67522261       -2.62963149
 C            0.95455290       -1.20917455       -3.71856979
 C            1.91664223       -0.33315158       -4.37235398
 C            1.45579679        0.89548393       -4.98360404
 C           -0.38081227       -0.82802500       -3.60661054
 C           -0.24077341        2.46770392       -4.72358993
 C           -1.38792665        2.44505587       -3.83724738
 C           -1.90130238        1.09034631       -3.80497161
 C            0.03149390        1.09632201       -5.11847764
 C           -0.87616039        0.23400586       -4.37516944
