   70
C70 / DATE: 7/ 1/2024 / Origin: Program Fullerene / C70 from database
 C            1.54820224        0.05562780        4.67541184
 C            0.75588567       -1.14761280        4.50870148
 C            1.46120642       -2.02867535        3.59152125
 C            2.69179549       -0.04397066        3.78570178
 C            2.72206418       -1.38881807        3.24736576
 C            2.63984810        1.07008806        2.85430850
 C            0.73978584        1.17576013        4.23055997
 C            1.47552585        1.86952068        3.19545180
 C           -0.59905996       -0.74558024        4.17781771
 C           -0.58415360        0.68368547        3.90307649
 C           -1.33601441       -1.57213539        3.34853143
 C            0.73166721       -2.68950452        2.60225818
 C           -0.66274591       -2.67354873        2.67600188
 C            1.36096214       -3.06101070        1.40826582
 C            3.22541355       -1.56325699        1.97014307
 C            2.63048878       -2.57291330        1.11681141
 C            2.92758764        0.84034591        1.50465339
 C            3.46446103       -0.39038610        1.13754290
 C            2.32586864        1.65250990        0.53294839
 C            0.76623801        2.43368875        2.15216181
 C            1.44998343        2.64914083        0.96792073
 C           -1.19958483        1.17196047        2.74935704
 C           -0.61867676        2.25473803        2.08370791
 C           -2.23862492       -0.97444022        2.38271813
 C           -2.12625924        0.38007317        2.06912911
 C           -1.45548284       -3.00716246        1.50702838
 C           -2.40883436       -1.92989131        1.30294059
 C            0.61967113       -3.63910620        0.38058257
 C           -0.83198195       -3.56859685        0.40860990
 C            1.04495537       -3.46107520       -1.00268608
 C            2.95714607       -2.21250024       -0.25122600
 C            3.38537566       -0.82114178       -0.24263490
 C            2.14838049       -2.65327613       -1.29334758
 C            2.29436704        1.24815752       -0.81318804
 C            2.87624576        0.03770864       -1.20694613
 C            1.54557934        1.98506526       -1.73757059
 C            0.84768470        3.48443907        0.04502029
 C            1.04959496        3.22577552       -1.36323910
 C           -1.29211174        2.83249148        1.00630247
 C           -0.56822269        3.73086569        0.21989919
 C           -2.62037034        0.82487260        0.84207650
 C           -2.37244856        2.14193350        0.44552652
 C           -2.63513624       -1.43636415        0.02557249
 C           -3.05279442       -0.11853524       -0.09796701
 C           -1.28272582       -3.20132454       -0.92184724
 C           -0.16063609       -3.38837634       -1.82090229
 C           -2.12112972       -2.10074742       -1.09486946
 C           -0.13834540       -2.68687227       -3.01520137
 C            2.17977028       -1.93194717       -2.48414846
 C            2.52919140       -0.51936162       -2.43500048
 C            1.10972795       -2.09238085       -3.44941157
 C            1.01716912        1.35030192       -2.86190881
 C            1.62792216        0.19451999       -3.32051676
 C            0.81693025       -0.78458120       -4.01107592
 C           -0.27077130        1.67290610       -3.30981497
 C           -0.09883580        3.77313044       -2.06647889
 C           -1.08208642        4.16033627       -1.06326353
 C           -0.77614299        2.94466814       -3.04493698
 C           -3.01932638        2.64699528       -0.68325992
 C           -2.36979782        3.66374371       -1.48926703
 C           -2.20124172        3.11548184       -2.82448291
 C           -3.52170054        0.29627888       -1.33213785
 C           -3.63314512        1.71527972       -1.60759652
 C           -3.05831019        1.95445294       -2.92297593
 C           -2.20824387       -1.50038586       -2.35799347
 C           -1.20435013       -1.73865135       -3.30083579
 C           -0.61897303       -0.60473494       -4.00195782
 C           -1.13782923        0.65746788       -3.74276167
 C           -2.98387760       -0.35070596       -2.51338872
 C           -2.47672397        0.70556054       -3.37078689
