   70
C70 / DATE: 7/ 1/2024 / Origin: Program Fullerene / C70 from database
 C            1.26112463        0.06834409        4.70630711
 C            2.44627400       -0.03791444        3.88149339
 C            2.44655997       -1.36497487        3.29073472
 C            0.42279436       -1.08817586        4.42107308
 C            1.11580113       -1.91094486        3.44959194
 C           -0.90319783       -0.60480159        4.09602701
 C            0.43680348        1.25138010        4.57375161
 C           -0.93760820        0.81191361        4.40012374
 C            0.71603376        2.18952258        3.50024841
 C            2.64237506        0.91226047        2.79833944
 C            1.67940930        1.88219311        2.53466575
 C            2.97155988       -1.24153905        1.94354671
 C            3.20359446        0.16900605        1.69189589
 C            2.39146132       -1.98870923        0.92047605
 C            0.44461691       -2.32199713        2.30447512
 C            1.19566657       -2.66490978        1.18211913
 C           -1.51057874       -1.03456249        2.92386648
 C           -0.91908054       -2.04211691        2.15384880
 C           -2.48400871       -0.22686250        2.34739163
 C           -1.56167165        1.70662952        3.43780075
 C           -0.57089774        2.70718583        3.07625534
 C           -2.35990638        1.16536680        2.43221254
 C           -0.66134254        3.30289192        1.83065365
 C            1.51992165        2.35347201        1.22690374
 C            0.49533337        3.25354745        0.95387340
 C            3.00057469        0.61905232        0.39863863
 C            2.19563890        1.73888844        0.16384330
 C            2.67909175       -1.61278235       -0.39476162
 C            3.14089670       -0.30992380       -0.62001634
 C            2.15413585       -2.36681938       -1.44983743
 C            0.55557686       -3.32705245        0.14792268
 C            1.08885266       -3.22729331       -1.19911797
 C           -1.59612043       -2.52362087        1.02508143
 C           -0.89248091       -3.24876614        0.06369447
 C           -3.30026234       -0.78580657        1.37793823
 C           -2.81922452       -1.95483573        0.66297300
 C           -3.94938960        0.08795559        0.42347967
 C           -2.65410612        1.95601250        1.31660564
 C           -1.82777704        3.03142589        1.00759080
 C           -3.48444509        1.45581673        0.32122352
 C            0.01010050        3.38831543       -0.40471396
 C           -1.44083740        3.25237700       -0.37551938
 C            1.88052954        2.07816155       -1.16366593
 C            0.71669591        2.80344191       -1.44481800
 C            3.23749134        0.18061710       -1.90873231
 C            2.54866874        1.42263703       -2.20350748
 C            2.42394549       -2.00101238       -2.76673534
 C            3.05417576       -0.72331386       -3.02194560
 C            1.39061717       -2.18494183       -3.77231478
 C           -0.03555277       -3.26656677       -2.12249358
 C           -1.24170415       -3.08540676       -1.33884029
 C            0.07454193       -2.62122314       -3.34318974
 C           -3.12466023       -1.76804319       -0.74906901
 C           -3.84753671       -0.52499575       -0.88969386
 C           -2.15921667       -2.10187110       -1.69044289
 C           -3.15538057        1.71111248       -1.07436299
 C           -2.08107854        2.54477740       -1.39281430
 C           -3.33235622        0.46440799       -1.80736820
 C            0.03319081        2.58265838       -2.63674206
 C           -1.39783953        2.33355946       -2.58911515
 C            1.90198530        1.26609449       -3.49665523
 C            2.27799144       -0.02981258       -4.03564332
 C            1.23674892       -0.93185442       -4.49074852
 C            0.60160983        1.72025051       -3.65543192
 C           -0.87367233       -1.56484508       -3.66425673
 C           -1.85920468       -1.21590532       -2.73720569
 C           -2.36879851        0.09260439       -2.73586042
 C           -1.64443774        1.11374229       -3.33922144
 C           -0.15045488       -0.52043926       -4.37311982
 C           -0.44756064        0.80701835       -4.09870549
