   70
C70 / DATE: 7/ 1/2024 / Origin: Program Fullerene / C70 from database
 C            1.19391702       -0.03653777        4.36232421
 C            2.51199730       -0.39522597        3.89381675
 C            2.46249792       -1.78360559        3.45730622
 C            0.36577513       -1.22692733        4.27679187
 C            1.06681195       -2.18740014        3.45700191
 C           -0.94317061       -0.80731703        3.84654786
 C            0.48064953        1.03006205        3.68601424
 C           -0.90843631        0.62638979        3.60635427
 C            1.04563588        1.65678772        2.58459330
 C            3.09438159        0.37083987        2.81275972
 C            2.37670539        1.40769988        2.21583947
 C            3.22303335       -1.88327616        2.22476461
 C            3.79275701       -0.56993452        1.96063920
 C            2.69465973       -2.62178893        1.17444161
 C            0.47843765       -2.61875087        2.26672649
 C            1.30313483       -3.05385721        1.22961419
 C           -1.62401070       -1.58017630        2.92301967
 C           -0.87559883       -2.34401793        2.00676739
 C           -2.83001907       -1.04208039        2.50780650
 C           -1.71630184        1.12423510        2.58115265
 C           -2.87069248        0.39895573        2.30366386
 C            0.19665221        2.31281949        1.69768651
 C           -1.12750680        1.87887312        1.55546680
 C            0.75449906        3.14972226        0.74420983
 C            2.85474644        1.93075265        1.01354842
 C            2.15754073        2.97528547        0.41443614
 C            4.06380064       -0.18857194        0.65469597
 C            3.73686112        1.16758534        0.24265230
 C            2.98675064       -2.23225986       -0.19537583
 C            3.70294663       -1.07122907       -0.44663019
 C            0.79418161       -3.07767277       -0.12880592
 C            1.81710051       -2.53071679       -0.99957764
 C           -1.39375690       -2.60457429        0.72508657
 C           -0.53009002       -2.73293121       -0.35994463
 C           -3.53113486       -1.66693510        1.41613123
 C           -2.75016721       -2.43323876        0.47498278
 C           -3.60053774        0.64793819        1.08022390
 C           -4.19995341       -0.61233206        0.68057125
 C           -1.77791896        2.02552730        0.31641463
 C           -3.03816974        1.45605017        0.09903135
 C            0.02963950        3.39577827       -0.48610477
 C           -1.12762383        2.67339623       -0.73831362
 C            2.30914298        3.20415159       -1.01103137
 C            0.99993937        3.52878405       -1.55074430
 C            3.59681270        1.14176697       -1.20415384
 C            3.32797580       -0.23581931       -1.57643702
 C            2.88835057        2.15500099       -1.83006483
 C            1.42219837       -1.66524908       -2.01063478
 C            2.18267637       -0.52708237       -2.31547557
 C           -0.89131372       -2.19987377       -1.60314928
 C            0.11582805       -1.75768890       -2.47556174
 C           -3.18064879       -2.04556109       -0.85890615
 C           -4.15519748       -0.96637468       -0.71944500
 C           -2.24653780       -1.98176967       -1.89388112
 C           -3.52298191        1.33824773       -1.20657899
 C           -4.11001703        0.07093629       -1.63580172
 C           -1.46980919        2.36897733       -2.05877106
 C           -2.74072700        1.86291462       -2.31351100
 C            0.80326471        2.74125677       -2.74873821
 C            1.91654563        1.80903101       -2.85467303
 C            1.64248947        0.46861757       -3.13883785
 C           -0.46753543        2.26164833       -3.03686215
 C           -0.20468573       -1.05574787       -3.62460705
 C            0.49253451        0.18887767       -3.87408677
 C           -0.52790721        1.21791043       -3.95284500
 C           -2.61254143       -1.30311456       -3.05572792
 C           -3.57916177       -0.22633212       -2.94797852
 C           -2.94491136        0.97804904       -3.44671109
 C           -1.59246499       -0.86149104       -3.98026711
 C           -1.79134176        0.56259346       -4.21284859
