   70
C70 / DATE: 7/ 1/2024 / Origin: Program Fullerene / C70 from database
 C            1.02560111       -0.02535201        4.57465561
 C            2.33227206       -0.39634556        4.09501597
 C            2.23741916       -1.75939033        3.58277916
 C            0.20042575       -1.21794062        4.49218911
 C            0.83217123       -2.08708835        3.52053940
 C           -1.14294483       -0.76911452        4.22903973
 C            0.30906534        1.01832380        3.86980533
 C           -1.08466533        0.67096921        4.00155660
 C            0.78059277        1.45628716        2.63011542
 C            2.92223080        0.39081609        3.03484872
 C            2.13193671        1.28187500        2.30241770
 C            3.00929108       -1.79780488        2.36198893
 C            3.74660400       -0.54610106        2.30722951
 C            2.41842619       -2.26705668        1.19219124
 C            0.22780655       -2.26997580        2.27336315
 C            1.01987437       -2.39170156        1.12092244
 C           -1.84475177       -1.33181662        3.09602958
 C           -1.15841950       -2.09482007        2.14805220
 C           -1.96990214        0.95617427        2.89587376
 C           -2.69085610       -0.26753289        2.61470497
 C           -0.12580238        1.89668622        1.65023556
 C           -1.50580842        1.68920463        1.80795976
 C            0.35796779        2.38371943        0.43134629
 C            2.58660329        1.67409771        1.04454959
 C            1.73972446        2.37426370        0.18526278
 C            4.24718858       -0.14466174        1.08394113
 C            3.76800334        1.11444437        0.54055391
 C            3.14938721       -2.10707900        0.01773674
 C            4.19913229       -1.10266020       -0.00452224
 C            2.46060761       -2.04307281       -1.25435485
 C            0.39756157       -2.53484169       -0.12260969
 C            1.09635412       -2.23605634       -1.29390139
 C           -1.76579400       -2.25679993        0.89886774
 C           -0.98985854       -2.66678069       -0.18977021
 C           -3.21364973       -0.40241614        1.34754902
 C           -2.98035992       -1.59376779        0.67151597
 C           -2.32661855        1.71266476        0.67942882
 C           -3.34058417        0.74840937        0.58611429
 C           -0.55098754        2.75540777       -0.57316151
 C           -1.89409771        2.38807918       -0.46084494
 C           -0.09016197        3.18708445       -1.81591003
 C            2.23431449        2.73163291       -1.06646329
 C            1.32232836        3.13938734       -2.10849920
 C            3.97804139        1.05280502       -0.89568667
 C            4.08210297       -0.35262642       -1.24253886
 C            3.01857553       -0.94932080       -2.03257496
 C            3.19968083        1.85936563       -1.70346012
 C            1.49386811        2.20645430       -3.21856608
 C            2.15488822       -0.10608932       -2.73595440
 C            2.49123331        1.24515648       -2.81298675
 C            0.40422651       -1.72315218       -2.37880222
 C            0.82384127       -0.51057336       -2.93542148
 C           -1.57822659       -2.76549457       -1.45183597
 C           -0.88617827       -2.17319883       -2.58391939
 C           -3.66618902       -1.79367911       -0.52206197
 C           -2.98927467       -2.47433739       -1.60384414
 C           -4.12844836        0.66176542       -0.55264257
 C           -4.38537290       -0.66325883       -1.09592737
 C           -2.69946861        2.40647753       -1.60187806
 C           -3.87001002        1.55230062       -1.66002524
 C           -0.74778305        2.69157960       -3.00860454
 C            0.17712108        1.73448178       -3.57775585
 C           -0.12602641        0.37840705       -3.47004152
 C           -2.06965699        2.31529844       -2.90530509
 C           -1.82215732       -1.32027323       -3.28190476
 C           -3.15088468       -1.67442846       -2.80929988
 C           -4.10353406       -0.62405519       -2.52078780
 C           -3.75474976        0.73862544       -2.86313464
 C           -1.47581571        0.01160516       -3.50312096
 C           -2.44743043        1.01681518       -3.43026146
