   70
C70 / DATE: 7/ 1/2024 / Origin: Program Fullerene / C70 from database
 C            1.13000224       -0.07486027        4.49754920
 C            2.46549324       -0.29590682        3.98515823
 C            2.46607907       -1.59691454        3.33483769
 C            0.32611001       -1.22861520        4.12062922
 C            1.09390509       -2.02425656        3.19161896
 C           -0.95373584       -0.74195155        3.68377412
 C            0.40550046        1.11994453        4.09805019
 C           -0.93935407        0.71084615        3.74503090
 C            1.03603273        2.08976428        3.33331345
 C            3.03684155        0.66411632        3.05552626
 C            2.36876877        1.85023336        2.78643895
 C            3.25223996       -1.48216482        2.13622409
 C            3.61530313       -0.08594267        1.95524308
 C            2.85157884       -2.17172099        1.00718600
 C            0.59128125       -2.24766961        1.90611793
 C            1.48526353       -2.48470146        0.85355756
 C           -1.55812364       -1.32626250        2.58315340
 C           -0.75716088       -1.97511710        1.62486208
 C           -2.71901091       -0.70240418        2.16624170
 C           -1.66148591        1.40563047        2.77382306
 C           -2.77361993        0.74897219        2.26157999
 C            0.26821355        2.80009889        2.32547797
 C           -1.01042099        2.35660319        1.97471473
 C            2.38631417        2.37253556        1.43236898
 C            1.20002933        3.19549011        1.28351949
 C            3.59154705        0.42868641        0.65509582
 C            2.79798635        1.55225758        0.38025076
 C            3.58861813       -1.87587935       -0.12374508
 C            3.87157475       -0.47104216       -0.37314586
 C            3.21265217       -2.48720687       -1.36883588
 C            0.98198732       -2.79936694       -0.41706627
 C            1.88179108       -3.03888888       -1.46126995
 C           -1.24812358       -2.17101008        0.32203636
 C           -0.38156372       -2.60036178       -0.69977840
 C           -3.31642719       -1.08376371        0.91503173
 C           -2.58642809       -1.86490071        0.03090174
 C           -3.41043660        1.23863357        1.05924943
 C           -4.02382609        0.08525358        0.41971540
 C           -1.52930507        2.70181012        0.71626405
 C           -2.75546270        2.18607212        0.28310955
 C            0.71021144        3.43499465        0.01533980
 C           -0.72263325        3.38616419       -0.19391200
 C            2.23025468        1.72638481       -0.89150904
 C            1.32640526        2.76026727       -1.11453587
 C            3.39882869       -0.18940295       -1.71172860
 C            3.32753819       -1.46517347       -2.39531417
 C            2.37883736        0.74130062       -1.86696066
 C            1.46630489       -2.80393361       -2.82295102
 C            2.25283642       -1.68801802       -3.33010343
 C           -0.83376472       -2.65943225       -2.03220961
 C            0.08438516       -2.48504314       -3.05774038
 C           -3.05567078       -1.97511168       -1.26939064
 C           -2.12140001       -2.24414532       -2.33309241
 C           -4.34403695        0.14935116       -0.92646896
 C           -4.00284402       -0.98386701       -1.76819190
 C           -3.13686322        2.34224372       -1.05089271
 C           -4.02252197        1.36161730       -1.66022985
 C           -0.92069569        3.18036130       -1.61486946
 C            0.30012621        2.58149014       -2.12631453
 C           -2.13646241        2.68756497       -2.04610446
 C            1.37384898        0.55623162       -2.83226762
 C            1.32504645       -0.60664833       -3.59173842
 C            0.03878225       -1.23128541       -3.79264872
 C            0.24269652        1.37205339       -2.81325026
 C           -2.25943302       -1.17444854       -3.30724530
 C           -3.48736307       -0.46677225       -3.02538254
 C           -3.43848385        0.97504015       -2.93543391
 C           -2.14837298        1.63476369       -3.04525740
 C           -1.11244775       -0.46697673       -3.65682185
 C           -0.99373735        0.87439005       -3.25658471
