   70
C70 / DATE: 7/ 1/2024 / Origin: Program Fullerene / C70 from database
 C            1.70142055       -0.14898757        4.99642530
 C            0.85977153       -1.31559623        5.18175521
 C            1.32816720       -2.34182772        4.27147483
 C            2.63700538       -0.43693003        3.92043847
 C            2.38163181       -1.77466144        3.44158902
 C            2.55284756        0.64378251        2.96991008
 C            0.85317502        0.94112386        4.54923543
 C            1.48868122        1.53746287        3.39554552
 C           -0.48881908       -0.96402516        4.77022543
 C           -0.49292351        0.43627883        4.38158638
 C            0.16336735       -2.89459886        3.60576370
 C           -0.92726208       -1.94827439        3.79266044
 C            0.35168746       -3.42587495        2.34371530
 C            2.32816617       -2.00780370        2.06736634
 C            1.58803905       -3.10439109        1.64836528
 C            2.64190921        0.36245273        1.61208464
 C            2.56665459       -0.96091385        1.15512487
 C            2.25537806        1.36967914        0.74618198
 C            0.68364367        2.07502140        2.39930147
 C            1.26715484        2.26694889        1.15885579
 C           -1.18090666        0.79152222        3.22654175
 C           -0.69116774        1.83483352        2.42994789
 C           -1.63978105       -1.49785517        2.68010375
 C           -2.01531339       -0.15649244        2.63946501
 C           -0.70722793       -3.28053339        1.36412508
 C           -1.60251763       -2.22993899        1.48578725
 C            1.33338298       -3.27960946        0.24287875
 C           -0.09301079       -3.51455230        0.08051664
 C            2.40946251       -1.19103465       -0.23063712
 C            1.95479927       -2.44380689       -0.67179121
 C            2.48282108        1.20098046       -0.60664989
 C            2.43066248       -0.09901780       -1.12597117
 C            2.23502624        2.29787235       -1.42047891
 C            0.54633745        2.95952865        0.19661678
 C            1.17893611        3.20656629       -1.01750974
 C           -1.46107437        2.24810119        1.33561651
 C           -0.84928605        2.93496582        0.27598135
 C           -2.85562293        0.26259808        1.62462194
 C           -2.67748725        1.60525490        1.11191906
 C           -2.18398130       -1.69520584        0.33074961
 C           -3.03410998       -0.60672469        0.47640976
 C           -0.68594807       -3.01121850       -1.06650090
 C           -1.67408613       -2.01753509       -0.94086812
 C            1.52033888       -2.58451927       -1.98168057
 C            0.13913842       -2.99397949       -2.18120692
 C            2.21429355       -0.30433065       -2.50119524
 C            1.80484113       -1.55221691       -2.94702056
 C            2.16121280        2.12355335       -2.84857087
 C            2.04214368        0.78063995       -3.36222666
 C            0.40420451        3.54760509       -2.19477414
 C            1.03112249        2.89933267       -3.33719512
 C           -1.61875854        3.30773567       -0.82970704
 C           -0.97851649        3.58949239       -2.10556531
 C           -3.26606438        1.62304526       -0.21110869
 C           -3.32793253        0.23798259       -0.66297893
 C           -2.85942848        2.59970531       -1.10349870
 C           -2.04501187       -1.24899841       -2.06480811
 C           -2.82159891       -0.09505346       -1.91295952
 C           -0.33576281       -2.39151181       -3.39809819
 C            0.76693585       -1.63204537       -3.96311657
 C           -1.47401884       -1.50989387       -3.31255349
 C            0.94153280        0.77107726       -4.31775863
 C            0.23778925        2.03747542       -4.19792679
 C            0.21845620       -0.40000133       -4.49715359
 C           -1.21231795       -0.40796595       -4.22097324
 C           -1.77726471        2.97393362       -3.15316971
 C           -2.88302697        2.28028998       -2.51747042
 C           -2.81529083        0.88381501       -2.90877286
 C           -1.14806905        2.04786472       -4.08235486
 C           -1.87855007        0.78940477       -4.01463482
