   70
C70 / DATE: 7/ 1/2024 / Origin: Program Fullerene / C70 from database
 C            1.32801813       -0.01603645        4.47172706
 C            2.64753895       -0.27588166        3.92801615
 C            2.65680721       -1.62903507        3.40126189
 C            0.51910422       -1.20319117        4.26610730
 C            1.32650431       -2.18958416        3.57367304
 C           -0.73031900       -0.79282876        3.65652014
 C            0.58015569        1.12425632        3.97115604
 C           -0.67714459        0.64003186        3.42516719
 C            1.25335067        2.12161593        3.28807890
 C            3.15850904        0.60642728        2.89569446
 C            2.58167164        1.85607428        2.73518455
 C            3.22706224       -1.58858309        2.06527398
 C            3.41402887       -0.19129470        1.70740785
 C            2.72839747       -2.46296225        1.11422729
 C            0.75379084       -2.88495144        2.51383238
 C            1.57062099       -3.27273686        1.45202084
 C           -1.27296279       -1.58758599        2.66380777
 C           -0.62056561       -2.76927672        2.29638731
 C           -2.14793391       -0.99188851        1.76396623
 C           -1.15567146        1.15376048        2.21220212
 C           -1.93620338        0.33767645        1.38886720
 C            0.52852394        2.88120477        2.28797273
 C           -0.62329769        2.34181031        1.70648324
 C            2.60691819        2.46067996        1.41822407
 C            1.54347918        3.44358475        1.42412863
 C            2.98362404        0.27912599        0.46270573
 C            2.76076596        1.64947954        0.29071473
 C            2.52215569       -1.98606748       -0.24059228
 C            2.50440663       -0.61925579       -0.49390960
 C            0.96262076       -3.68360787        0.19856939
 C            1.50337554       -2.82597047       -0.84570725
 C           -1.20380179       -3.56789287        1.31780717
 C           -0.39071505       -3.97815846        0.18204297
 C           -2.93869616       -1.81601316        0.98381678
 C           -2.51070983       -3.19013211        0.80727958
 C           -3.42087612       -1.33328120       -0.29198888
 C           -2.31149859        0.77812620        0.11231912
 C           -3.15288156       -0.01934486       -0.67849214
 C           -1.00927496        2.80238632        0.44283051
 C           -1.81519839        1.99742979       -0.38111544
 C            1.13705466        3.94394207        0.20934172
 C           -0.27110292        3.84998591       -0.11326510
 C            2.28857938        2.12874968       -0.93559518
 C            1.80702187        3.44035552       -0.96828076
 C            1.78125347       -0.13914631       -1.58198955
 C            1.86752105        1.21108734       -1.90751997
 C            0.63999447       -2.27000009       -1.78501273
 C            0.89288393       -0.98149852       -2.26824216
 C           -1.14998368       -3.69298218       -1.02134954
 C           -2.52304512       -3.47265783       -0.61380394
 C           -3.25636769       -2.40901280       -1.26535764
 C           -0.60819099       -2.86138977       -2.00146512
 C           -2.87014529       -2.06264233       -2.54812647
 C           -1.47637036       -2.28771224       -2.92717454
 C           -3.35342944        0.30965553       -2.01390700
 C           -3.22828339       -0.73994021       -3.00829491
 C           -2.06833494        2.37597259       -1.71365665
 C           -2.72168910        1.48794810       -2.56174549
 C           -0.34659398        4.10873805       -1.53270874
 C            0.99075650        3.88534345       -2.07643219
 C           -1.26601282        3.33551754       -2.32547420
 C            1.32301493        1.65227044       -3.11002655
 C            0.85799921        3.01960262       -3.22351805
 C           -0.55541963        2.95883369       -3.53195021
 C            0.15425407       -0.49704579       -3.35267740
 C           -1.03542219       -1.13740316       -3.69554048
 C           -2.20858902       -0.32375310       -3.94633769
 C           -2.06983682        1.10699024       -3.81364300
 C            0.34706374        0.81622772       -3.78667185
 C           -0.82225924        1.64585472       -4.07324339
