   70
C70 / DATE: 7/ 1/2024 / Origin: Program Fullerene / C70 from database
 C            1.36720289       -0.12687345        4.07720833
 C            2.43158130       -0.22889426        3.09534574
 C            2.32118354       -1.53176677        2.45460960
 C            0.49276749       -1.27559602        3.90263408
 C            1.05524464       -2.11288183        2.85872294
 C           -0.85911138       -0.78145058        3.73475680
 C            0.53892605        1.06297446        4.10122548
 C           -0.85077327        0.63200503        4.06732426
 C            0.93317948        2.17200097        3.36452505
 C            2.77897926        0.87836060        2.32337388
 C            2.07502429        2.07757501        2.46422813
 C            3.50402135        0.66262966        1.15477643
 C            2.73684527       -1.66684304        1.13317521
 C            3.57291234       -0.68308904        0.60932138
 C            2.01341782       -2.49276129        0.26504698
 C            0.21720141       -2.61720212        1.87464169
 C            0.78421574       -3.02638756        0.66888823
 C           -1.59721964       -1.22577897        2.64166204
 C           -1.15350647       -2.34240170        1.93625723
 C           -2.57279161       -0.39908209        2.07606004
 C           -1.81312168        1.45450582        3.50012981
 C           -2.80556688        0.86083784        2.62104421
 C           -0.07162737        3.00617878        2.72419980
 C           -1.41873957        2.72760613        2.91370034
 C            1.77543928        2.87449426        1.28259343
 C            0.40761680        3.34080070        1.38951944
 C            3.32561463        1.56897161        0.03386830
 C            2.25481190        2.45656379        0.05122797
 C            3.75871062       -0.56995658       -0.82869805
 C            3.64034009        0.83757656       -1.18236517
 C            2.40150409       -2.59005909       -1.07138802
 C            3.21672006       -1.54084386       -1.65808062
 C            1.43593078       -3.00189472       -2.07599740
 C           -0.00126540       -3.72561987       -0.24253577
 C            0.24266699       -3.56761095       -1.66487625
 C           -2.00224318       -2.90094630        0.99034584
 C           -1.43839668       -3.74025315       -0.04944517
 C           -3.13525369       -0.73628992        0.83766288
 C           -3.01276444       -2.05057112        0.38626386
 C           -3.53078850        0.27269499       -0.05402170
 C           -3.28775518        1.91080155        1.75402324
 C           -2.34530041        3.01548327        1.83484664
 C           -3.48320553        1.60203905        0.35423497
 C           -0.44395425        3.22426746        0.29278785
 C           -1.81978164        3.24316076        0.49903143
 C           -2.68028972        2.53316049       -0.42465648
 C            1.44291175        2.57326180       -1.07756879
 C            0.06076312        2.76852479       -0.92912408
 C            3.01396665        1.20461583       -2.36551388
 C            1.97200394        2.21521103       -2.31372277
 C            2.60440543       -1.15644557       -2.92151654
 C            1.41032368       -1.97076808       -3.09899791
 C            2.58522394        0.17926273       -3.30397820
 C            0.20000344       -1.36862779       -3.44738119
 C           -0.99503101       -3.10153541       -2.26321386
 C           -2.05891518       -3.37015415       -1.31015682
 C           -3.03816932       -2.33419811       -1.04010527
 C           -1.00377537       -1.90472160       -2.97800373
 C           -3.46641725        0.04110518       -1.42482621
 C           -3.15330740       -1.28162908       -1.93170067
 C           -2.16291876       -1.12670125       -2.98934584
 C           -2.15750801        2.09832885       -1.63511910
 C           -0.82977913        2.39296846       -1.94832407
 C           -2.77464446        1.01318565       -2.25493413
 C           -2.08297410        0.28889298       -3.30892848
 C            1.08251768        1.98218471       -3.42897775
 C            1.42358335        0.69062911       -4.00796977
 C            0.20994726       -0.10740727       -4.04173218
 C           -0.34410852        1.99382631       -3.18978375
 C           -0.89670333        0.80055639       -3.80627388
