   70
C70 / DATE: 7/ 1/2024 / Origin: Program Fullerene / C70 from database
 C            1.28391775       -0.05410951        4.34959491
 C            2.56381124       -0.42282587        3.79027189
 C            2.55921338       -1.85798738        3.57247980
 C            0.43319735       -1.23375168        4.34414670
 C            1.22454817       -2.35494491        3.87577804
 C           -0.78896260       -0.89150178        3.63626892
 C            0.54449696        1.01788171        3.71549348
 C           -0.80266780        0.55194798        3.47269998
 C            1.14128407        1.78300389        2.72352696
 C            2.98289247        0.21152992        2.55570174
 C            2.29668993        1.31863492        2.07554307
 C            3.13058456       -2.11146618        2.25771790
 C            3.34375098       -0.82721257        1.60756659
 C            2.64124704       -3.17072761        1.50963209
 C            0.63916625       -3.26874987        3.01030744
 C            1.46566141       -3.88197120        1.98606896
 C           -1.21949193       -1.69436750        2.58171687
 C           -0.64966202       -2.95474485        2.40232253
 C           -1.94765825       -1.10965361        1.54184652
 C           -1.48752474        1.09014584        2.39133541
 C           -2.28343005        0.24195253        1.63046030
 C            0.31628281        2.65405296        2.01889501
 C           -1.02141525        2.27666995        1.81219348
 C            0.93975855        3.47634824        1.09368961
 C            2.48111642        1.65167203        0.73746099
 C            2.01503845        2.89153629        0.31972656
 C            3.00242299       -0.66096664        0.26221140
 C            2.62187186        0.61329660       -0.19173319
 C            2.50872851       -3.01807619        0.07199721
 C            2.77888819       -1.79055724       -0.53400073
 C            0.61735452       -4.16249403        0.84269698
 C           -0.67954264       -3.56636832        1.08548271
 C            1.33058007       -3.76031739       -0.35241990
 C           -2.09017153       -1.78195752        0.32188328
 C           -1.28057370       -2.88139003        0.04053617
 C           -2.82169221       -1.20045864       -0.71601850
 C           -3.11098823        0.80190434        0.67221383
 C           -3.43081692        0.03734640       -0.51812492
 C           -1.77376845        2.86251801        0.78277104
 C           -2.88078963        2.18011549        0.27479460
 C            0.13372383        4.27840593        0.20341895
 C           -1.26980368        3.95671506        0.08135041
 C            1.67841660        3.08418731       -1.07392109
 C            0.72183856        4.17179562       -1.12177934
 C            2.16495652        0.78632059       -1.50473691
 C            1.49904581        1.95685812       -1.86670286
 C            2.36254674       -1.62675717       -1.85024301
 C            2.13619494       -0.29362122       -2.36997178
 C            0.59920461       -3.25834137       -1.42214389
 C           -0.77211963       -3.03822795       -1.24961536
 C            1.28871950       -2.47402420       -2.33986601
 C           -2.66179115       -1.69094934       -2.01103770
 C           -1.51406604       -2.53052854       -2.30981180
 C           -2.85399947       -0.80378050       -3.14389449
 C           -3.56687414        0.97442826       -1.62595138
 C           -3.23071887        2.30121526       -1.13420748
 C           -3.16223088        0.59329946       -2.89889031
 C           -1.60921180        4.12198464       -1.32148885
 C           -0.36191285        4.09993826       -2.07220685
 C           -2.50986730        3.16847302       -1.94529500
 C            0.48838396        1.91425879       -2.84287211
 C           -2.16514816        1.38865982       -3.60163877
 C           -0.42619895        2.96284793       -2.96507333
 C           -1.83154449        2.64604353       -3.12259415
 C            1.07243451       -0.36949837       -3.35429029
 C            0.54965280       -1.73030480       -3.34106701
 C           -0.81800173       -1.93270660       -3.43881431
 C           -1.64268213       -0.85432960       -3.94627655
 C            0.19826874        0.70742664       -3.48698104
 C           -1.09056384        0.48625484       -3.97813344
