   70
C70 / DATE: 7/ 1/2024 / Origin: Program Fullerene / C70 from database
 C            1.63965312       -0.23337429        4.93227532
 C            0.77273023       -1.39796187        4.96918777
 C            1.26930094       -2.34095927        3.98934840
 C            2.60597149       -0.42317095        3.86270593
 C            2.39823750       -1.73942524        3.30163436
 C            2.52088610        0.71751157        2.97272646
 C            0.82262448        0.90646983        4.57133316
 C            1.49066340        1.60539811        3.48507012
 C           -0.55421651       -0.98911200        4.53572714
 C           -0.53248091        0.44084706        4.33198833
 C            0.14252870       -2.76323413        3.17739512
 C           -0.94569617       -1.83076577        3.42086584
 C            0.39773464       -3.10662872        1.86119857
 C            2.44654722       -1.89434671        1.92259210
 C            1.69616464       -2.92922618        1.38152777
 C            2.57862842        0.50438201        1.59839472
 C            2.73335337       -0.79496857        1.10120615
 C            2.07413799        1.49168317        0.75629539
 C            0.68912647        2.26467402        2.56117297
 C            1.17575217        2.43775982        1.26679847
 C           -1.18308652        0.96511697        3.22625080
 C           -0.68875299        2.15887772        2.72125150
 C           -1.58110986       -1.24775483        2.32069499
 C           -1.87258563        0.11914807        2.34478427
 C           -0.64814491       -2.99092842        0.95469768
 C           -1.52785807       -1.91106696        1.09172132
 C           -0.47442732       -3.58647582       -0.28416946
 C            1.96205278       -3.28883753        0.07158178
 C            0.88482612       -3.88135528       -0.69696407
 C            2.74500539       -0.99383689       -0.28603561
 C            2.60052547       -2.29676051       -0.77424011
 C            2.22321776        1.34616959       -0.61891248
 C            2.53715509        0.09098499       -1.14671528
 C            1.78868081        2.37141951       -1.45367185
 C            0.42839735        3.22760771        0.38974557
 C            0.81211015        3.31545317       -0.94644256
 C           -1.49789504        2.84526266        1.83991544
 C           -0.86634051        3.58227250        0.76371490
 C           -2.49959116        0.70746542        1.24201798
 C           -2.58279887        2.10012731        1.23749698
 C           -2.08294990       -1.31024981       -0.04575729
 C           -2.56542802        0.00764382        0.02549348
 C           -1.17864780       -3.05924228       -1.43099568
 C           -2.05056152       -1.98990987       -1.27098502
 C            1.04160562       -3.46480789       -2.07697497
 C            2.14126589       -2.52383777       -2.13660928
 C           -0.25808958       -3.04356792       -2.55948359
 C            2.42201298       -0.13329746       -2.51953309
 C            2.03519318       -1.44622928       -2.99742857
 C            1.46530049        2.09404735       -2.84230526
 C            1.75053410        0.84161391       -3.36157219
 C           -0.18619299        3.52971227       -1.98872783
 C            0.19484259        2.73447118       -3.14487301
 C           -1.88788019        3.76819862       -0.24909680
 C           -2.94281833        2.80055262        0.02684655
 C           -1.52740129        3.64366197       -1.64745702
 C           -3.05585768        0.64467308       -1.12879029
 C           -3.14998261        2.03321777       -1.17380274
 C           -2.49942838        2.75248334       -2.25751229
 C           -2.46272801       -1.34394835       -2.42763986
 C           -3.05244844       -0.02892873       -2.34302832
 C           -0.34151752       -1.98639894       -3.45852436
 C            0.82125823       -1.27683211       -3.78845638
 C            0.74955477        0.13440203       -4.14930096
 C           -1.58060697       -1.36773866       -3.58632287
 C           -0.77821023        2.04536405       -3.86401842
 C           -2.16195395        2.05016071       -3.40542945
 C           -2.67454890        0.69976266       -3.54571986
 C           -0.48541457        0.72205133       -4.39459065
 C           -1.67992829       -0.08546894       -4.25356984
