   70
C70 / DATE: 7/ 1/2024 / Origin: Program Fullerene / C70 from database
 C            1.24226450       -0.01907442        4.15924779
 C            2.54083754       -0.31239888        3.59973593
 C            2.56555860       -1.72677869        3.28537116
 C            0.40958199       -1.20604864        4.00645104
 C            1.19602058       -2.21031968        3.33528174
 C           -0.83584712       -0.78966189        3.40529332
 C            0.49533174        1.09728085        3.61917694
 C           -0.87376254        0.65734464        3.47993765
 C            1.03154276        1.87613552        2.59759633
 C            2.95806151        0.40262672        2.41096973
 C            2.19447554        1.45818459        1.92988136
 C            3.29938650       -1.89146414        2.04351778
 C            3.46078515       -0.56828821        1.45466327
 C            2.92246550       -2.93580848        1.21769750
 C            0.68887868       -2.84980553        2.20897853
 C            1.61614839       -3.53906627        1.43498109
 C           -1.28473775       -1.40255561        2.23696826
 C           -0.50850475       -2.39586532        1.61605347
 C           -2.27846940       -0.74447719        1.50626031
 C           -1.67160634        1.32362742        2.56952082
 C           -2.59487631        0.57787877        1.84800261
 C            0.16426451        2.75597680        1.94319632
 C           -1.21551728        2.52620846        2.02770331
 C            0.67464209        3.54106342        0.91008756
 C            2.39183655        1.85062476        0.61207668
 C            1.86021226        3.07054546        0.22054705
 C            3.19285368       -0.37588690        0.09538612
 C            2.74646831        0.88237706       -0.34249150
 C            3.05853901       -2.77084988       -0.21317677
 C            3.10642922       -1.48694940       -0.75300592
 C            1.20141443       -4.13400997        0.18893933
 C            2.18313573       -3.75915074       -0.81871173
 C           -0.90633973       -2.88766725        0.36161493
 C           -0.10123671       -3.79465994       -0.32964965
 C           -2.71656476       -1.28477380        0.29469681
 C           -1.95655769       -2.27462067       -0.32620150
 C           -3.68012313       -0.61367320       -0.46020867
 C           -3.59173993        1.26362354        1.16909078
 C           -4.19271311        0.66062119        0.00187835
 C           -2.09064190        3.26137967        1.23101426
 C           -3.37228577        2.66818196        0.87155410
 C           -0.21883219        4.12334555       -0.08070641
 C           -1.58378833        3.92629063        0.04516766
 C            1.70560964        3.35554160       -1.18528685
 C            0.38405848        3.92308476       -1.38633352
 C            2.50250189        1.10192083       -1.70800559
 C            1.86804859        2.26878644       -2.11959405
 C            2.73877894       -1.31074874       -2.08204062
 C            2.39282313        0.01102334       -2.55757270
 C            1.45924653       -3.40693367       -2.02602954
 C            0.04939199       -3.65256221       -1.76617182
 C            1.83517458       -2.26211373       -2.71654853
 C           -2.05128271       -2.43078295       -1.71125772
 C           -0.90928251       -2.92659459       -2.45264429
 C           -3.47684046       -0.47851468       -1.89137521
 C           -2.61059402       -1.35747630       -2.50673260
 C           -4.05901684        1.60527181       -1.09924872
 C           -3.55394529        2.84589034       -0.56085069
 C           -2.31239644        3.37433614       -1.08499109
 C           -3.29792304        0.93747798       -2.13487564
 C           -0.31582269        3.09879893       -2.35945678
 C            0.63988693        2.15085610       -2.89320023
 C           -1.61012846        2.68171142       -2.07487013
 C           -2.02732247        1.40568859       -2.48192783
 C            1.19937428       -0.10239257       -3.38148704
 C            0.83380016       -1.50497563       -3.45101832
 C           -0.50261634       -1.86044109       -3.36035839
 C           -1.50782888       -0.81263760       -3.27881980
 C            0.21798395        0.88241551       -3.27059193
 C           -1.11866892        0.51390763       -3.07309814
