   70
C70 / DATE: 7/ 1/2024 / Origin: Program Fullerene / C70 from database
 C            1.25681086        0.14110944        4.74824190
 C            2.52234820        0.00600331        4.06288460
 C            2.52228287       -1.28849710        3.39988486
 C            0.44065406       -1.01076001        4.39033563
 C            1.16756532       -1.78806494        3.40454262
 C           -0.87715042       -0.52575523        4.04318610
 C            0.46990290        1.33397886        4.51441506
 C           -0.88958471        0.91428158        4.22755288
 C            0.86910497        2.25521535        3.46470022
 C            2.90834480        0.99988395        3.07261598
 C            2.06732731        2.07163219        2.77004025
 C            3.17106544       -1.11986368        2.12482192
 C            3.55390071        0.27779069        1.98991850
 C            2.65032038       -1.75722012        1.01002861
 C            0.54807293       -2.08011627        2.18853820
 C            1.30540284       -2.16895153        1.01319457
 C           -1.49774335       -1.02269859        2.90885686
 C           -0.83490065       -1.94859081        2.09462663
 C           -2.46603351       -0.22480552        2.32129130
 C           -1.39923737        1.73806987        3.13726245
 C           -0.33052439        2.62748272        2.72648914
 C           -2.17446349        1.12625560        2.15674005
 C           -0.21298112        2.96450439        1.38497191
 C            2.22226788        2.71189614        1.54541110
 C            1.05270640        3.28094339        0.89729431
 C            3.58581764        0.83191795        0.71067891
 C            3.04549839        2.10220294        0.50937487
 C            3.24184351       -1.41662661       -0.19191719
 C            3.68418989       -0.04176073       -0.37089486
 C            2.64111152       -1.85366486       -1.42542516
 C            0.65466149       -2.44501350       -0.20252719
 C            1.39485539       -2.46470717       -1.39289824
 C           -1.48822866       -2.38243531        0.94147532
 C           -0.74702122       -2.56999497       -0.23673379
 C           -3.30139014       -0.83297052        1.40969698
 C           -2.84828976       -2.09248821        0.85765600
 C           -3.76524866       -0.05100266        0.28691054
 C           -2.19329051        1.66250980        0.86364425
 C           -1.22562867        2.60391075        0.49076206
 C           -3.00211176        1.04954074       -0.10634615
 C           -1.10246790        2.97075063       -0.84358215
 C            1.29818031        3.28518774       -0.53328050
 C            2.46235638        2.45212480       -0.78182299
 C            0.21997244        3.20934545       -1.39618386
 C            3.24083153        0.38159750       -1.68824854
 C            2.90034013       -0.82328898       -2.41852286
 C            2.43428366        1.50788750       -1.80518087
 C            2.04568320       -0.72943405       -3.50106779
 C            0.75461285       -2.66648199       -2.60777425
 C            1.14377600       -1.83974580       -3.73957765
 C           -1.40706141       -2.81124313       -1.45725348
 C           -0.68250097       -2.80757955       -2.64504395
 C           -3.54895902       -2.27393228       -0.38964530
 C           -4.22235531       -1.01586447       -0.69140781
 C           -2.78849518       -2.64860678       -1.55475821
 C           -4.01590332       -0.73283759       -2.08977570
 C           -3.31863247       -1.87143740       -2.65984679
 C           -2.82399640        1.33820381       -1.46979983
 C           -1.87982246        2.27970491       -1.85135323
 C           -3.26985102        0.45296180       -2.45149324
 C            0.33906318        2.41414801       -2.60425955
 C            1.40792299        1.53507981       -2.75819316
 C            1.28534296        0.49846758       -3.68278218
 C           -0.99857022        1.98086914       -2.97254986
 C           -0.06348500       -1.30594643       -4.33593248
 C           -1.17985342       -2.03700242       -3.78182659
 C           -2.38378175       -1.36890793       -3.64516843
 C           -2.36631989        0.08740353       -3.53211894
 C           -0.03741988        0.13668123       -4.17781826
 C           -1.16511732        0.78875402       -3.67503358
