   70
C70 / DATE: 7/ 1/2024 / Origin: Program Fullerene / C70 from database
 C            1.28990277       -0.04263800        4.37885627
 C            2.58694603       -0.35731748        3.83026355
 C            2.58416562       -1.76495797        3.47315330
 C            0.45866673       -1.23615223        4.27425101
 C            1.21170547       -2.23568566        3.55585644
 C           -0.82004175       -0.82209535        3.74649597
 C            0.53636679        1.05062858        3.79685938
 C           -0.84845755        0.62617529        3.82563141
 C            1.01477033        1.70993444        2.65942494
 C            3.04437973        0.38302873        2.67473201
 C            2.32579007        1.48232306        2.20837067
 C            3.28684093       -1.90833099        2.20790529
 C            3.55164934       -0.57074057        1.70136269
 C            2.83913465       -2.87446098        1.32426177
 C            0.65942388       -2.85166694        2.43698525
 C            1.55108289       -3.49611517        1.58492822
 C           -1.33058657       -1.43618098        2.60561685
 C           -0.59593611       -2.43996193        1.94544073
 C           -2.39807048       -0.81254654        1.95684446
 C           -1.75107707        1.30167079        3.02871018
 C           -2.67540202        0.52575075        2.22175084
 C            0.09827551        2.40692898        1.85550823
 C           -1.25383757        2.36513488        2.17549099
 C            0.48755284        2.93496973        0.62273927
 C            2.71049848        1.98389970        0.97290352
 C            1.82548429        2.87141452        0.25325720
 C            3.38403390       -0.27979343        0.34621122
 C            3.28014669        1.05955902        0.00104492
 C            2.86757458       -2.58331071       -0.09528015
 C            2.86151715       -1.25324101       -0.51457515
 C            1.08049928       -4.03102883        0.33152444
 C            1.96336867       -3.52690284       -0.71142635
 C           -1.10685310       -3.00974233        0.76510989
 C           -0.27735013       -3.74859653       -0.07094006
 C           -2.95880740       -1.39939529        0.83523634
 C           -2.28168729       -2.51569715        0.21055429
 C           -3.51476476       -0.55794440       -0.21651951
 C           -3.11575017        1.38909766        1.13987647
 C           -2.23227034        2.54847198        1.12476288
 C           -3.51877310        0.82977702       -0.07142157
 C           -0.47076085        3.28817365       -0.34014520
 C           -1.83574643        3.06193342       -0.10100486
 C           -0.03116916        3.65370997       -1.61653329
 C            2.16832800        2.73901772       -1.14982368
 C            2.76592039        1.42486772       -1.29976629
 C            1.24406698        3.14964805       -2.08849659
 C            2.12821697       -0.87539405       -1.65904159
 C            2.11466454        0.46769949       -2.07017473
 C            1.13310082       -3.06910323       -1.79629585
 C           -0.24189061       -3.42417220       -1.48605013
 C            1.37463909       -1.82844686       -2.36560470
 C           -2.36719961       -2.34458715       -1.23482705
 C           -3.15021043       -1.14588022       -1.49708680
 C           -1.26318902       -2.64856696       -2.03014496
 C           -2.81870662       -0.31160526       -2.55833401
 C           -3.47687042        1.62926323       -1.21176138
 C           -2.70883202        2.86159167       -1.16725532
 C           -3.22700386        1.01716555       -2.50704400
 C           -0.93611863        3.58595162       -2.74863283
 C           -2.30167495        3.17816531       -2.51952001
 C           -2.56891404        2.00895084       -3.34305536
 C            0.94422153        2.25832083       -3.19287782
 C            1.23593070        0.89906780       -3.07106321
 C           -0.35026158        2.66787407       -3.71514494
 C           -1.34024809        1.65197214       -4.02609760
 C            0.43284380       -1.39925492       -3.28703529
 C           -0.94989045       -1.82102037       -3.10699592
 C           -1.80153315       -0.68870135       -3.43319415
 C            0.42753034       -0.02234302       -3.72305409
 C           -0.94935446        0.32144070       -4.04569650
