   70
C70 / DATE: 7/ 1/2024 / Origin: Program Fullerene / C70 from database
 C            1.60103444       -0.18426057        4.99747580
 C            0.73618489       -1.35009291        5.01720654
 C            1.25700219       -2.29085238        4.04872280
 C            2.57484877       -0.35951802        3.93048911
 C            2.38181985       -1.67534479        3.36680228
 C            2.48176813        0.78385709        3.04374593
 C            0.78225471        0.95474000        4.64229758
 C            1.47400472        1.67714819        3.59046398
 C           -0.58246875       -0.94501765        4.55347937
 C           -0.56060556        0.48405347        4.35106427
 C            0.14418977       -2.73076111        3.22788083
 C           -0.94295405       -1.78724761        3.43084576
 C            0.42242600       -3.09621815        1.92232213
 C            2.43425580       -1.82911279        1.98885532
 C            1.72149631       -2.89319680        1.45491032
 C            2.50512534        0.57729833        1.66179107
 C            2.67131943       -0.72094186        1.16181481
 C            1.97113310        1.57085480        0.83194764
 C            0.69673191        2.37590177        2.68359671
 C            1.23648845        2.60308393        1.42387960
 C           -1.17370004        1.01321064        3.22458216
 C           -0.68796170        2.23106113        2.77350306
 C           -1.53590345       -1.20848952        2.30545023
 C           -1.78951226        0.16911062        2.28682297
 C           -0.61241549       -3.00293735        1.00160024
 C           -1.48154082       -1.91023037        1.09759794
 C           -0.41599970       -3.62093031       -0.22299526
 C            2.00619963       -3.25244105        0.14935147
 C            0.95377573       -3.88962206       -0.61732790
 C            2.66950619       -0.92414340       -0.22223126
 C            2.60094600       -2.23713934       -0.70008194
 C            1.85984655        1.33283816       -0.54321620
 C            2.34312338        0.13442085       -1.07477990
 C            1.24296168        2.27761366       -1.37764104
 C            0.58534003        3.53046178        0.62602035
 C            0.65671709        3.40859909       -0.81606757
 C           -1.46849134        2.92338312        1.86790625
 C           -0.79092770        3.83433515        0.96847096
 C           -2.32457468        0.75250707        1.13066536
 C           -2.40012154        2.14413598        1.07063571
 C           -2.00946803       -1.33428788       -0.06311846
 C           -2.37784143        0.01938473       -0.05972300
 C           -1.12217123       -3.13398457       -1.38684617
 C           -1.99870407       -2.06345685       -1.25909151
 C            1.11313507       -3.49393046       -2.00253972
 C            2.16605616       -2.50043525       -2.06330868
 C           -0.19798314       -3.14516336       -2.51201078
 C            2.25976299       -0.09312302       -2.44625154
 C            2.00978195       -1.43760410       -2.93388736
 C            0.95440076        1.96305574       -2.70959747
 C            1.49256860        0.81509502       -3.27692168
 C           -0.10857983        2.59917408       -3.34999133
 C           -0.60571791        3.89524321       -1.35373097
 C           -1.55402751        3.88173006       -0.25726234
 C           -2.53153651        2.80577844       -0.21466406
 C           -1.03823738        3.38080402       -2.56162904
 C           -2.76136986        0.65122729       -1.25216879
 C           -2.70072368        2.04627433       -1.36303808
 C           -2.27617655        2.62180162       -2.56180249
 C           -2.42777492       -1.46208847       -2.43497650
 C           -2.95748001       -0.11740032       -2.39576564
 C           -0.31153114       -2.13222947       -3.45579345
 C            0.82384557       -1.37752840       -3.77968857
 C            0.68635131        0.01130816       -4.19049612
 C           -1.57178877       -1.56384201       -3.60931031
 C           -0.91979810        1.84964103       -4.29551931
 C           -2.28299646        1.84067850       -3.77967420
 C           -2.72167537        0.46700806       -3.70588300
 C           -0.55207854        0.48181894       -4.60552854
 C           -1.72156500       -0.34506585       -4.37763840
