   70
C70 / DATE: 7/ 1/2024 / Origin: Program Fullerene / C70 from database
 C            1.45854175       -0.32397613        5.01644989
 C            0.60210072       -1.49014530        4.89455757
 C            1.17988120       -2.36157311        3.88885451
 C            2.56439528       -0.48333322        4.08756025
 C            2.38349807       -1.72836114        3.37796927
 C            2.65865286        0.72784146        3.30436991
 C            0.69644004        0.83520280        4.58528464
 C            1.49783276        1.55233496        3.61836516
 C           -0.68163067       -1.04609997        4.38558748
 C           -0.61374266        0.38769397        4.17020782
 C            0.13331314       -2.70137381        2.93471530
 C           -1.02541242       -1.88580499        3.24958325
 C            0.49161060       -2.83965764        1.59626727
 C            2.57285304       -1.74142530        2.00312997
 C            1.83230166       -2.65738188        1.26628524
 C            3.05144120        0.64190132        1.97123839
 C            3.08656553       -0.61306434        1.34403694
 C            2.82474121        1.76737954        1.19407978
 C            0.86037394        2.20128431        2.56445315
 C            1.66705205        2.58837764        1.50412221
 C           -1.13226607        0.88138186        2.98048133
 C           -0.49420051        1.93478624        2.31616769
 C           -1.71044381       -1.30455843        2.19132480
 C           -1.98234638        0.06082121        2.24624970
 C           -0.47512021       -2.61913733        0.60686645
 C           -1.63163481       -1.90487469        0.93616452
 C           -0.10588733       -2.76303989       -0.73405287
 C            2.22797545       -2.90055816       -0.03218501
 C            1.20017525       -3.15391481       -1.02033023
 C            3.28753800       -0.69993302       -0.04356619
 C            3.15578269       -1.96294038       -0.62963065
 C            2.93348327        1.67796427       -0.24393248
 C            3.22003249        0.45905548       -0.83883594
 C            1.06095479        2.99512231        0.25480370
 C            1.89957942        2.52124396       -0.82823868
 C           -1.09675481        2.41394442        1.14749601
 C           -0.31000361        2.91707631        0.10565319
 C           -2.67588344        0.62539269        1.18800026
 C           -2.37016359        1.93883826        0.83434959
 C           -2.44258079       -1.39266923       -0.07578467
 C           -3.16780671       -0.23215764        0.20886975
 C           -0.90549843       -2.20478071       -1.73788724
 C           -2.17849324       -1.73601716       -1.40492601
 C           -0.33833856       -1.78662376       -2.95085385
 C            1.77736922       -2.83241874       -2.30725654
 C            3.01722687       -2.10514660       -2.06420196
 C            0.99007696       -2.06350474       -3.24134985
 C            3.01222612        0.37199979       -2.21436530
 C            3.00046396       -0.91406808       -2.87671656
 C            1.81306042       -0.96626593       -3.71058823
 C            1.30643904        2.13351570       -2.02982371
 C            1.97924521        1.20063461       -2.82234267
 C            1.22127343        0.36113309       -3.73366762
 C           -0.82639293        2.91719837       -1.18640534
 C           -0.07049609        2.33931144       -2.22021159
 C           -3.02734517        2.49618042       -0.25746769
 C           -2.20307180        3.04076017       -1.32129384
 C           -4.04719293        0.28378072       -0.73166664
 C           -4.08789409        1.72599508       -0.88216716
 C           -2.96719738       -1.18590712       -2.41746483
 C           -4.05912045       -0.30160108       -2.05455938
 C           -0.91406735       -0.70530062       -3.60359793
 C           -0.16136848        0.46599669       -3.71833826
 C           -0.71620902        1.65657138       -3.26157831
 C           -2.29405868       -0.60065120       -3.56453593
 C           -2.81870188        2.69915125       -2.58528633
 C           -4.08039635        2.03670928       -2.29877371
 C           -4.10180055        0.78014703       -3.02503035
 C           -2.06953016        1.86805225       -3.50148118
 C           -2.88144626        0.70348583       -3.80315028
