   70
C70 / DATE: 7/ 1/2024 / Origin: Program Fullerene / C70 from database
 C            1.19731292        0.04056606        4.28933412
 C            2.44616436       -0.25475478        3.62746053
 C            2.39309979       -1.64838249        3.21690259
 C            0.36437264       -1.15063823        4.20664353
 C            1.01407904       -2.07269278        3.30591349
 C           -0.97616612       -0.72152494        3.88784994
 C            0.40442134        1.14959809        3.80273532
 C           -0.98501927        0.73213629        3.84461286
 C            0.83959061        1.89755622        2.71356006
 C            2.81281423        0.52195395        2.45717053
 C            1.91823763        1.44941197        1.93636303
 C            3.04186704       -1.73641278        1.93059678
 C            3.46226314       -0.39530332        1.54980412
 C            2.48183795       -2.53911627        0.94441031
 C            0.36036653       -2.45130909        2.13530317
 C            1.12281703       -2.88002291        1.04131304
 C           -1.69968084       -1.40308634        2.92191440
 C           -1.01766433       -2.20376920        1.98324242
 C           -2.91183254       -0.82576220        2.57516537
 C           -1.90762673        1.36782039        3.01177969
 C           -2.99651500        0.62697510        2.55023567
 C           -0.07554044        2.77710257        2.15753008
 C           -1.49859881        2.49602334        2.29841348
 C            0.15109835        3.29746990        0.82712184
 C            1.99017357        1.77267699        0.57506849
 C            1.23242867        2.84146742        0.08603690
 C            3.50417768       -0.10099354        0.19279195
 C            2.80371319        1.01652964       -0.29257355
 C            3.07329451       -2.44477559       -0.31173252
 C            3.71048567       -1.18523737       -0.65365525
 C            2.37645197       -2.92314824       -1.49231171
 C            0.47316201       -3.44029391       -0.05070843
 C            1.05907011       -3.33093357       -1.37460713
 C           -1.68781160       -2.68439368        0.84312122
 C           -0.95513062       -3.25014854       -0.19400032
 C           -3.64676934       -1.34100933        1.44808137
 C           -2.95184738       -2.19832601        0.51924797
 C           -3.66348747        1.00501011        1.31373467
 C           -4.17902076       -0.20986233        0.70687794
 C           -2.14371696        2.83678094        1.03827904
 C           -1.13959797        3.43501158        0.17208803
 C           -3.10320065        1.98674653        0.50286883
 C           -1.20988744        3.25891364       -1.20601221
 C            1.23969149        3.13120653       -1.27035314
 C           -0.03133612        3.37651348       -1.93953658
 C            2.78610436        1.27237226       -1.67385938
 C            2.08013858        2.36415265       -2.16370992
 C            3.60476519       -1.00533150       -2.08006530
 C            2.74769529       -2.06108575       -2.60052213
 C            3.09463719        0.25221154       -2.57409553
 C            1.69999593       -1.42139337       -3.37762522
 C            2.14861415       -0.06601109       -3.63112494
 C            0.05283720       -2.75484514       -2.25610700
 C           -1.21142195       -2.79574514       -1.55431609
 C            0.36756775       -1.64881200       -3.03830770
 C           -3.17568115       -1.67888521       -0.82154881
 C           -3.93476832       -0.44440789       -0.70272859
 C           -2.14676705       -1.78892559       -1.75683981
 C           -3.25099976        1.90475283       -0.88108402
 C           -2.29670985        2.57417285       -1.75477885
 C           -3.59302444        0.63073790       -1.50302358
 C           -0.57260560       -0.62733620       -3.20753949
 C           -1.81908052       -0.69429026       -2.56768789
 C           -2.11329031        1.71993512       -2.92355632
 C           -2.65851516        0.41938507       -2.58913278
 C            0.04319002        2.79159236       -3.26388351
 C            1.36756613        2.22038163       -3.42402250
 C            1.21076486        0.88885211       -3.97917917
 C           -0.92592333        1.77871684       -3.63022550
 C           -0.19763029        0.54423269       -3.87311793
