   70
C70 / DATE: 7/ 1/2024 / Origin: Program Fullerene / C70 from database
 C            1.53699926        0.02920007        4.78793810
 C            0.72804486       -1.15856142        4.95771019
 C            1.29791904       -2.20695407        4.12519349
 C            2.50165437       -0.24985562        3.73847184
 C            2.21917395       -1.56381423        3.20239859
 C            2.46328528        0.86357331        2.82330049
 C            0.66371430        1.08415449        4.30204528
 C            1.31790793        1.68570144        3.16575625
 C           -0.66028801       -0.78290064        4.74146917
 C           -0.65252595        0.52022447        4.09556544
 C           -1.51931342       -1.75656662        4.26364826
 C            0.43910772       -3.17684676        3.63940400
 C           -0.96462104       -3.07689220        4.00669793
 C            0.48578331       -3.50582494        2.22342465
 C            2.02740204       -1.68980313        1.82414839
 C            1.14498063       -2.65525010        1.33283419
 C            2.65811188        0.62246550        1.47247987
 C            2.47268626       -0.67055355        0.97301868
 C            2.34589987        1.66794696        0.62117735
 C            0.54290229        2.13042281        2.10381636
 C            1.22861265        2.44489943        0.94017309
 C           -1.25515447        0.68084024        2.84569995
 C           -0.76496332        1.65288829        1.96204457
 C           -2.38664260       -1.43389516        3.14225992
 C           -2.13829884       -0.29362517        2.37391237
 C           -1.74110659       -3.68385453        2.94713278
 C           -0.82635799       -3.99664146        1.86220147
 C           -2.66506969       -2.67667962        2.45550883
 C           -1.41852722       -3.48814102        0.64905162
 C           -2.56454342       -2.67814277        1.01724762
 C            0.71326239       -2.58053050        0.00088151
 C           -0.58955407       -2.96655205       -0.33425646
 C            2.31217522       -0.81514127       -0.40836296
 C            1.40504433       -1.76225787       -0.89847648
 C            2.69702033        1.53671669       -0.71150611
 C            2.70246214        0.24063100       -1.24145314
 C            2.42713730        2.62779983       -1.52809283
 C            0.51764584        3.04023756       -0.09240328
 C            1.23632088        3.39628296       -1.22993244
 C           -1.40060430        1.84167283        0.73028394
 C           -0.84523824        2.74789535       -0.18480726
 C           -2.52556197       -0.27489419        1.02808617
 C           -2.70580242       -1.47809741        0.33848521
 C           -2.30863692        0.88021988        0.27074684
 C           -1.21790119       -2.25389585       -1.34444348
 C           -2.33595458       -1.49128551       -0.99501508
 C            0.90825349       -1.62011189       -2.20233810
 C           -0.45111812       -1.84934454       -2.42819224
 C            2.63693862        0.04541860       -2.61957408
 C            1.65482695       -0.89154194       -3.12590494
 C            2.54801692        2.50783911       -2.96301740
 C            2.67995459        1.18312106       -3.52234699
 C            0.55078116        3.65983965       -2.47916775
 C            1.38230245        3.14260169       -3.55790147
 C           -1.53632781        3.01343163       -1.36506685
 C           -0.82425493        3.49840784       -2.53899919
 C           -2.64099007        0.86070357       -1.08946082
 C           -2.63190412       -0.37186123       -1.75385420
 C           -2.52009805        2.04737483       -1.80975282
 C           -1.11269078       -1.18260376       -3.45533739
 C           -2.30494071       -0.43998204       -3.10239131
 C            1.00404006       -0.27872084       -4.27537730
 C            1.63081560        1.01099787       -4.51282415
 C            0.81163494        2.21531448       -4.51988407
 C           -0.36871240       -0.39944457       -4.42133887
 C           -1.41381174        2.87524927       -3.71232897
 C           -2.50094711        2.02255403       -3.26240782
 C           -2.36629536        0.74654432       -3.92483493
 C           -0.57073350        2.09901205       -4.61130471
 C           -1.16332790        0.77888534       -4.74185852
