   70
C70 / DATE: 7/ 1/2024 / Origin: Program Fullerene / C70 from database
 C            1.37133485       -0.06303214        4.21002699
 C            2.63394217       -0.29317889        3.55090257
 C            2.58895879       -1.61668369        2.95165792
 C            0.52424723       -1.22269978        3.97685372
 C            1.24445156       -2.13659812        3.11554165
 C           -0.77393530       -0.74689279        3.54216164
 C            0.61027863        1.11325969        3.84672712
 C           -0.76539989        0.70129957        3.61713181
 C            1.16078488        2.08550346        3.01113772
 C            3.05727744        0.63860580        2.52588326
 C            2.34940015        1.82088085        2.30543806
 C            3.12701417       -1.51868734        1.60518755
 C            3.50405215       -0.13619333        1.37710359
 C            2.49014774       -2.20678792        0.58205527
 C            0.60276167       -2.65055273        1.99558654
 C            1.37630933       -2.99098217        0.89301940
 C           -1.38028742       -1.34319884        2.44963133
 C           -0.76484364       -2.42635883        1.81228428
 C           -2.36024255       -0.62748731        1.77644840
 C           -1.52964956        1.44215211        2.71725107
 C           -2.28526228        0.77021204        1.73975254
 C            0.28723692        3.07193269        2.55543134
 C           -1.13233911        2.75757169        2.50101407
 C            0.60947634        3.85954050        1.37907998
 C            2.63674663        2.51820317        1.13387918
 C            1.71759232        3.51872230        0.62528926
 C            3.35555679        0.40724629        0.10344169
 C            3.17310133        1.78615829       -0.00370544
 C            2.66799268       -1.76435174       -0.72770141
 C            2.99799535       -0.42482200       -0.96440641
 C            2.19201160       -2.55564722       -1.77061850
 C            0.78860526       -3.75651010       -0.10184731
 C            1.31433187       -3.66541740       -1.44998988
 C           -1.41139786       -3.03172422        0.72849249
 C           -0.66239350       -3.78241429       -0.18477431
 C           -3.14929082       -1.30472930        0.86001832
 C           -2.68746690       -2.59407794        0.37380782
 C           -3.70833937       -0.57650812       -0.26047887
 C           -2.82062717        1.46465364        0.64039364
 C           -3.34356349        0.75084352       -0.43898278
 C           -1.71627506        3.51283406        1.41916178
 C           -0.63496875        4.16619415        0.69679648
 C           -2.52923043        2.81288271        0.45114607
 C           -0.77580003        3.81561441       -0.70628405
 C           -2.10435842        3.25582731       -0.86371002
 C            1.57086567        3.29975952       -0.80737146
 C            2.59893951        2.35763741       -1.21104478
 C            0.29778752        3.23054080       -1.37552042
 C            2.73692777        0.13831977       -2.21333307
 C            2.37282199        1.53946886       -2.30219813
 C            1.67164285       -1.92345042       -2.97044430
 C            1.91294591       -0.57766053       -3.17077002
 C            0.18984940       -3.62617788       -2.36878467
 C           -1.02641503       -3.79591316       -1.59786372
 C            0.33128314       -2.43700007       -3.18917031
 C           -3.13062409       -2.73032219       -1.00164781
 C           -3.72105710       -1.46753974       -1.40844990
 C           -2.16231090       -3.11564369       -2.00733130
 C           -0.74227059       -1.55229456       -3.28866551
 C           -3.06903063       -1.03938244       -2.63264773
 C           -2.01855431       -1.99754615       -2.93230224
 C           -3.15271603        1.23439312       -1.73504464
 C           -2.35354981        2.42889256       -1.94384103
 C           -2.81907552        0.31092758       -2.80729871
 C            0.05815036        2.37748825       -2.45947088
 C            1.09615210        1.61537271       -2.99208170
 C            0.80578225        0.29290818       -3.52791941
 C           -0.50249902       -0.18694221       -3.48744906
 C           -1.25106791        2.05710175       -2.81604783
 C           -1.53991388        0.73246047       -3.35053698
