   70
C70 / DATE: 7/ 1/2024 / Origin: Program Fullerene / C70 from database
 C            1.66715127       -0.05932113        4.60001522
 C            0.84819263       -1.24798728        4.49053925
 C            1.29659446       -2.00804244        3.33420913
 C            2.63483971       -0.09409647        3.51969542
 C            2.35752729       -1.24764789        2.69514952
 C            2.60381089        1.19753471        2.87996266
 C            0.79853238        1.08464103        4.37132208
 C            1.40293150        1.88337543        3.33603276
 C           -0.53608796       -0.81926830        4.52074166
 C           -0.53988981        0.58716003        4.14922008
 C           -1.46189730       -1.64723021        3.91522935
 C            0.32533063       -2.61991578        2.54450120
 C           -0.96134378       -2.72432642        3.07671522
 C            0.49825469       -2.66507040        1.15320612
 C            2.31823091       -1.07281648        1.31894502
 C            1.53568594       -1.92980163        0.55582722
 C            2.88733848        1.27758058        1.52369657
 C            2.80020616        0.11207981        0.74327908
 C            2.54527911        2.47943022        0.92953954
 C            0.59503348        2.46850940        2.36683543
 C            1.28020443        3.07745250        1.32273696
 C           -1.23889849        0.98349534        3.00585296
 C           -0.67268304        1.91447964        2.11040538
 C           -2.54074994       -1.03835626        3.16315489
 C           -2.35640609        0.23434554        2.62421969
 C           -2.05804120       -3.11953415        2.21900551
 C           -3.08225042       -2.09043565        2.32231898
 C           -0.48358820       -3.26839080        0.35255998
 C           -1.79186751       -3.32952077        0.81637700
 C           -0.31816270       -3.28789592       -1.02489376
 C            1.68721144       -1.91617705       -0.82502324
 C            0.89396570       -2.75166742       -1.60009259
 C            2.81702034        0.21963209       -0.65759077
 C            2.39206207       -0.87285696       -1.42900631
 C            2.66587827        2.61059561       -0.49911449
 C            2.96547441        1.48451429       -1.25128481
 C            0.57968791        3.41850567        0.10489014
 C            1.58469096        3.47535553       -0.93839889
 C           -1.32170218        2.19338627        0.89497011
 C           -0.63279098        2.80127980       -0.15631395
 C           -3.08231111        0.60248275        1.49730318
 C           -2.57523457        1.65754775        0.64398878
 C           -3.51770947       -1.75771651        0.97891564
 C           -2.82447975       -2.64239834        0.05782792
 C           -3.66400994       -0.42467705        0.64017624
 C           -1.42319561       -2.82568416       -1.85096779
 C           -2.50766414       -2.20711745       -1.22874624
 C            0.58637941       -2.38097423       -2.96957080
 C           -0.86301331       -2.27587123       -3.07095025
 C            2.44411585       -0.81155698       -2.82036422
 C            1.38917392       -1.44046800       -3.59490745
 C            2.90138045        1.62172016       -2.63458643
 C            2.75013187        0.44691980       -3.46276568
 C            1.17864365        3.38507582       -2.25817148
 C            2.03822435        2.65873045       -3.17764860
 C           -1.01960879        2.56927071       -1.48438141
 C           -0.19065536        2.97839030       -2.53311126
 C           -2.93980057        1.33621018       -0.72331887
 C           -3.44290795       -0.02744300       -0.73454179
 C           -2.91779732       -0.93479876       -1.65481694
 C           -2.11426418        1.74609974       -1.76226688
 C           -1.43542336       -1.13932999       -3.61955996
 C           -2.44686008       -0.42123617       -2.86215927
 C           -2.12804249        0.99573794       -2.93647491
 C            0.77504998       -0.40118640       -4.40427665
 C            1.70092169        0.71622494       -4.43768779
 C            1.19639905        2.05364524       -4.19204200
 C           -0.18499326        2.22191758       -3.77579738
 C           -0.59135247       -0.15985832       -4.28676177
 C           -1.07587198        1.16734916       -3.92177126
