   70
C70 / DATE: 7/ 1/2024 / Origin: Program Fullerene / C70 from database
 C            1.20058971       -0.16017704        4.58428003
 C            2.53267021       -0.30243693        4.02967816
 C            2.54767237       -1.52334787        3.24158550
 C            0.38539154       -1.25372873        4.07082966
 C            1.17860601       -1.97858913        3.10584394
 C           -0.88015574       -0.69790640        3.64172579
 C            0.46597808        1.07095535        4.36024114
 C           -0.90303156        0.69166609        4.06090514
 C            1.05758204        2.11610888        3.65426149
 C            3.07793416        0.76036346        3.20225810
 C            2.36641437        1.94518300        3.03496826
 C            3.29978044       -1.25897226        2.03013554
 C            3.71393390        0.13472957        2.05501990
 C            2.84281297       -1.78654671        0.82847582
 C            0.67796690       -2.16991119        1.82420763
 C            1.57703907       -2.38741723        0.78548135
 C           -1.39118195       -1.02866633        2.38628761
 C           -0.64317630       -1.82772994        1.51569273
 C           -2.43397450       -0.25789495        1.87557067
 C           -1.71288759        1.56660095        3.35828292
 C           -2.66755159        1.00821355        2.41974068
 C            0.24828878        2.92411270        2.75468057
 C           -1.12250787        2.72989626        2.70448495
 C            2.32971696        2.59365333        1.73102600
 C            0.97398831        3.06300175        1.50472557
 C            3.79423760        0.82472697        0.84952389
 C            3.03910671        2.05601226        0.66827529
 C            3.38500509       -1.27938455       -0.35028996
 C            3.70186343        0.07558678       -0.39403907
 C            3.02643048       -1.88918201       -1.54250051
 C            1.08952623       -2.84198863       -0.43372564
 C            1.98926289       -2.89505271       -1.49386472
 C           -1.10235684       -2.04614891        0.21446912
 C           -0.28408946       -2.73257038       -0.68681332
 C           -2.96961712       -0.55288759        0.62018040
 C           -2.29011319       -1.44163390       -0.22763858
 C           -3.87092178        0.36500419        0.08058849
 C           -3.01106817        2.09334003        1.52759267
 C           -1.80201369        2.88606331        1.42872931
 C           -3.66009867        1.77079657        0.35731239
 C            0.32696507        2.78044449        0.29908261
 C           -1.06720980        2.84359127        0.23941558
 C            2.40673084        1.99995469       -0.63967389
 C            3.01885587        0.91229211       -1.36997283
 C            1.03668552        2.19335418       -0.75052278
 C            2.67705918       -1.03143392       -2.65946530
 C            2.30591573        0.27860372       -2.38114083
 C            1.50452741       -3.04403688       -2.84893164
 C            1.86928177       -1.82324548       -3.55840331
 C           -0.80161002       -3.11258547       -1.91957722
 C            0.09073451       -3.26261663       -3.05276714
 C           -2.74788587       -1.66013259       -1.54120727
 C           -1.99516853       -2.45229863       -2.40913628
 C           -4.20915609        0.29807624       -1.32270908
 C           -3.63734156       -0.75640488       -2.12197427
 C           -3.11159032        2.29630849       -0.87188683
 C           -1.72938886        2.49101033       -0.94132504
 C           -3.79365400        1.56562377       -1.91766942
 C            0.34541934        1.60117684       -1.80507159
 C            0.99066575        0.68607517       -2.65851238
 C           -0.99742211        1.92256050       -1.99417937
 C            0.65070560       -1.24713953       -4.07598280
 C           -0.33713493       -2.30755338       -4.05527715
 C           -1.69818212       -1.93911844       -3.74607009
 C            0.26074567        0.02870178       -3.66456541
 C           -3.26968283       -0.14886717       -3.38567899
 C           -3.07056573        1.26303339       -3.12888289
 C           -1.64084435        1.49372014       -3.15117315
 C           -2.07579297       -0.63868079       -4.03255465
 C           -1.05871441        0.40574506       -3.91237550
