   70
C70 / DATE: 7/ 1/2024 / Origin: Program Fullerene / C70 from database
 C            1.48914321        0.06577254        4.78775569
 C            0.71024992       -1.15061752        4.64076735
 C            1.56669774       -2.12906868        4.01399937
 C            2.65945829       -0.05806524        3.93404413
 C            2.76155219       -1.44137658        3.53901787
 C            2.55959499        0.94952588        2.89641080
 C            0.68916808        1.15996002        4.27412542
 C            1.45079659        1.82253234        3.23393958
 C           -0.54201140       -0.80751777        3.98643680
 C           -0.61601072        0.64063929        3.91423703
 C           -0.98346084       -1.55295515        2.89151031
 C            1.03808957       -2.88004942        2.89677613
 C           -0.28589185       -2.70718986        2.50047938
 C            2.90519120       -1.75087524        2.12879644
 C            2.06056373       -2.89524585        1.86716809
 C            2.73824340        0.60407629        1.55647636
 C            2.93833700       -0.73218807        1.17808954
 C            2.30855623        1.51359361        0.59199902
 C            0.73986789        2.39168655        2.18702159
 C            1.35381584        2.47607778        0.94043037
 C           -1.24517854        1.21159635        2.81720364
 C           -0.65054748        2.32369206        2.22470171
 C           -1.90405964       -0.96622484        2.01351579
 C           -2.09182072        0.42375531        2.03982443
 C           -2.46842595       -1.73419541        0.99100799
 C           -0.65604098       -3.34943299        1.32607784
 C           -1.81803198       -2.89389023        0.59106676
 C            1.65878268       -3.12552783        0.55928896
 C            0.38561178       -3.65523495        0.35737004
 C            2.73981343       -1.08844279       -0.15834469
 C            2.23014851       -2.36265810       -0.45811436
 C            2.54800032        1.23669820       -0.75042072
 C            2.75317628       -0.08851301       -1.13529733
 C            2.22288378        2.20247386       -1.70057099
 C            0.71523651        3.20645943       -0.06126324
 C            1.27636862        3.23992121       -1.33363312
 C           -1.35878484        2.99088837        1.23762431
 C           -0.62669814        3.55016247        0.11273894
 C           -2.84764172        1.04796328        1.04628037
 C           -2.56215997        2.37188861        0.70953860
 C           -3.33894561       -1.13978028        0.08244732
 C           -3.62501598        0.27463723        0.19473048
 C           -3.17362823       -1.43955590       -1.33267112
 C           -1.55899618       -3.09568571       -0.82691362
 C           -0.20922511       -3.61466010       -0.96963078
 C           -2.05142522       -2.15606041       -1.72853051
 C            1.89647878       -2.68347654       -1.76963550
 C            0.56460275       -3.19638693       -2.04005201
 C            2.68511137       -0.43712377       -2.48131697
 C            2.23334684       -1.76521742       -2.83553373
 C            1.95220893        1.81137826       -3.07589068
 C            2.06417710        0.47466751       -3.42130162
 C            0.42618764        3.49635839       -2.48323990
 C            0.77162337        2.53468775       -3.51423727
 C           -1.53187275        3.57699447       -1.02778599
 C           -2.72731031        2.83291925       -0.66238450
 C           -1.01468722        3.46706440       -2.31126976
 C           -3.93664933        0.76404726       -1.13897311
 C           -3.57801250       -0.27690204       -2.08888426
 C           -3.33599026        2.00335992       -1.59455382
 C           -0.42555465        1.77589942       -3.82951406
 C           -1.55110929        2.46485383       -3.22214873
 C           -2.64002427        0.28784667       -3.03394185
 C           -2.66955067        1.72893392       -2.85922025
 C           -1.20354893       -1.63591608       -2.71818405
 C           -0.03378827       -2.32414215       -3.03318757
 C            1.05296806       -1.61711023       -3.67586911
 C            0.89238322       -0.20710056       -3.95167176
 C           -1.41783931       -0.34831046       -3.24134175
 C           -0.35849700        0.38368640       -3.79736975
