   70
C70 / DATE: 7/ 1/2024 / Origin: Program Fullerene / C70 from database
 C            1.68471327       -0.03318547        4.47289664
 C            0.85168175       -1.21889675        4.41072744
 C            1.31826718       -2.05179148        3.31204782
 C            2.64505506       -0.11591472        3.39093564
 C            2.44675865       -1.37718834        2.69959125
 C            2.54906510        1.10506377        2.61159654
 C            0.83383219        1.11478411        4.21390718
 C            1.39584559        1.84573214        3.09138273
 C           -0.53168000       -0.78396108        4.40050925
 C           -0.53314254        0.64178929        4.10501117
 C           -1.45041978       -1.59295006        3.75536017
 C            0.36851519       -2.66766249        2.49894582
 C           -0.95089129       -2.69906203        2.95454790
 C            0.63887803       -2.84855613        1.13173219
 C            2.55206453       -1.37542082        1.31846234
 C            1.79312131       -2.27500186        0.57124925
 C            2.73963318        1.01416852        1.23921631
 C            3.04350026       -0.23166073        0.69529472
 C            2.15082484        1.97222289        0.41531601
 C            0.52807428        2.38825674        2.14940700
 C            1.01479253        2.65507089        0.86829308
 C           -1.31178251        1.12720358        3.05666693
 C           -0.84662494        2.22339831        2.32677004
 C           -2.50136229       -0.96936967        2.97400282
 C           -2.32677116        0.33173557        2.51546438
 C           -2.01293550       -3.06068920        2.04313780
 C           -2.98112927       -1.97367050        2.04473421
 C           -0.33507049       -3.42508576        0.30010435
 C           -1.67205499       -3.33997100        0.66972695
 C           -0.09044289       -3.53335946       -1.06269503
 C            2.03728222       -2.37165642       -0.80127410
 C            1.19776909       -3.14448719       -1.59076595
 C            3.35387947       -0.30268447       -0.65156424
 C            2.90226505       -1.45769973       -1.40661105
 C            2.47147995        1.97100164       -0.94220366
 C            3.14888366        0.87459731       -1.47716879
 C            1.84268063        2.87106516       -1.79399548
 C            0.20097434        3.34438250       -0.03400870
 C            0.62798325        3.52755176       -1.34897220
 C           -1.70828735        2.82089222        1.41703408
 C           -1.14751981        3.51674955        0.27228660
 C           -2.91275536        0.71021608        1.30681523
 C           -2.84364968        2.04885524        0.94475369
 C           -3.21504879       -1.58806828        0.66462941
 C           -2.56785633       -2.57193716       -0.17952700
 C           -3.12013150       -0.25242440        0.31129120
 C           -1.09879095       -3.00700853       -1.96944859
 C           -2.09928711       -2.20223405       -1.43761249
 C            0.99293856       -2.78778841       -2.98603534
 C           -0.43688567       -2.60822008       -3.18656203
 C            2.67154476       -1.02427515       -2.77851575
 C            2.85016316        0.41865955       -2.82692288
 C            1.65992347       -1.61615466       -3.52224120
 C            1.67175571        2.52556509       -3.19497358
 C            2.02549982        1.18806252       -3.63675072
 C           -0.34117035        3.46095099       -2.43866670
 C            0.27833707        2.74770241       -3.53620412
 C           -2.12778524        3.44313882       -0.79477623
 C           -3.08693976        2.41434691       -0.43759354
 C           -1.66152738        3.16675494       -2.13669208
 C           -2.86146067        0.06109564       -1.02225156
 C           -2.18105893       -0.85509617       -1.83333169
 C           -3.01657896        1.37389272       -1.44370026
 C           -2.19709609        1.86746268       -2.53186558
 C           -0.64612384       -1.26383809       -3.67127809
 C            0.63957297       -0.78070814       -4.13842250
 C            0.83427506        0.58945541       -4.22435410
 C           -0.28279880        1.46861776       -3.92576059
 C           -1.47825941       -0.39698912       -2.96374298
 C           -1.38651155        0.97422488       -3.22735938
