   70
C70 / DATE: 7/ 1/2024 / Origin: Program Fullerene / C70 from database
 C            1.20510039        0.04399286        4.34831145
 C            2.49827902       -0.26939028        3.79086107
 C            2.41675439       -1.59939109        3.19846682
 C            0.36876102       -1.13304792        4.18774973
 C            1.03202100       -2.00488314        3.24356421
 C           -0.96646153       -0.67559337        3.85879231
 C            0.46929978        1.16877850        3.80684724
 C           -0.92952018        0.77733076        3.76678132
 C            0.99247306        1.91286076        2.75000177
 C            3.04080142        0.60054732        2.77031797
 C            2.23226979        1.57744417        2.18182344
 C            3.07980553       -1.53104032        1.91248274
 C            3.80340640       -0.27420545        1.90500362
 C            2.39333138       -1.90900182        0.75716065
 C            0.36892699       -2.29937008        2.06039331
 C            1.06592568       -2.34682312        0.84301022
 C           -1.69808827       -1.36809143        2.90248683
 C           -1.02548806       -2.25744474        2.05350506
 C           -2.86057128       -0.75399621        2.45533292
 C           -1.78985076        1.41080139        2.87008491
 C           -2.89374036        0.69923893        2.40250279
 C            0.12003160        2.73774640        2.04897318
 C           -1.31456544        2.49435375        2.13294685
 C            0.43159640        3.11030434        0.68240990
 C            2.55267179        2.01256035        0.88897805
 C            1.56405709        2.58643736        0.08514517
 C            4.20450654        0.22174969        0.68332268
 C            3.72220085        1.53502012        0.29700204
 C            2.90340543       -1.49339396       -0.47663146
 C            3.99062756       -0.61165666       -0.47967493
 C            2.15531654       -1.69931329       -1.64423958
 C            0.37426187       -2.67422911       -0.32469400
 C            0.90451303       -2.32090942       -1.56913247
 C           -1.69534014       -2.83572150        0.98415270
 C           -0.94738908       -3.11332994       -0.22796569
 C           -3.55369780       -1.26867900        1.28993952
 C           -3.00738467       -2.34112346        0.60017234
 C           -3.53748772        1.08060674        1.15503962
 C           -4.08811796       -0.13133576        0.55875993
 C           -1.89422944        2.80632729        0.83466698
 C           -0.80889931        3.15172435       -0.07025858
 C           -2.96579996        2.06500614        0.34930206
 C           -0.83968174        2.67622688       -1.37892170
 C            1.55502630        2.35705801       -1.29130890
 C            0.33665564        2.19126986       -1.96270278
 C            3.87285249        1.61164365       -1.14615600
 C            4.20660943        0.26994237       -1.60572336
 C            2.74855768        2.06509499       -1.93817077
 C            2.51987205       -1.06733627       -2.83822615
 C            3.46760049        0.02631298       -2.81784525
 C            2.71272793        1.23325006       -3.12009501
 C            0.26356289        1.37441037       -3.10204693
 C            1.47642183       -0.63925121       -3.74550477
 C            1.42244936        0.80606721       -3.62086006
 C            0.08856425       -2.33987824       -2.70424917
 C            0.28147209       -1.33268556       -3.73166548
 C           -1.85372254       -2.95313266       -1.35157849
 C           -3.09858435       -2.39168572       -0.84950993
 C           -1.34598669       -2.52999271       -2.56806242
 C           -4.24439785       -0.20758113       -0.81820244
 C           -3.72771877       -1.36113464       -1.54198726
 C           -3.18575096        2.04521757       -1.02568606
 C           -2.07373446        2.32720124       -1.92220075
 C           -3.97248569        0.97434548       -1.61140423
 C           -0.94837065        0.77313906       -3.43053963
 C           -0.95608262       -0.57493673       -3.79498234
 C           -2.00268445       -1.45129174       -3.29476517
 C           -3.17334476       -0.88978237       -2.80167812
 C           -2.12757803        1.37225719       -3.01290151
 C           -3.31596145        0.55439190       -2.83671998
