   70
C70 / DATE: 7/ 1/2024 / Origin: Program Fullerene / C70 from database
 C            1.07869263       -0.04636817        4.58066626
 C            2.28041139       -0.35418556        3.84223521
 C            2.15195469       -1.71689556        3.35170916
 C            0.22220666       -1.22253904        4.53328603
 C            0.77407067       -2.11621725        3.53216158
 C           -1.13922473       -0.76236959        4.37501741
 C            0.27872988        1.08509440        4.16037508
 C           -1.10855431        0.68796588        4.27905480
 C            0.64695642        1.83246125        3.04388483
 C            2.63448469        0.47753211        2.70788320
 C            1.81457340        1.53226997        2.32510993
 C            2.69505648       -1.74329359        2.01366862
 C            3.13887277       -0.40513873        1.67797517
 C            2.02793124       -2.44903612        1.02605353
 C            0.02121299       -2.44572134        2.40263999
 C            0.68401524       -2.80839823        1.21783568
 C           -1.90475524       -1.24941883        3.24791101
 C           -1.35947513       -2.19692369        2.38587222
 C           -2.02328924        1.08297827        3.22135317
 C           -2.61834220       -0.12060447        2.67210412
 C           -0.33761074        2.59373337        2.42027936
 C           -1.63426615        2.07412244        2.33562216
 C            0.07234612        3.51783274        1.46878736
 C            1.96750018        2.04778718        1.03610201
 C            1.26018928        3.19933995        0.69744750
 C            3.03699571       -0.02042170        0.34495356
 C            2.47938083        1.22491558        0.02077966
 C            2.48568367       -2.27655957       -0.27236855
 C            3.02567331       -1.02830673       -0.61774448
 C            1.95823524       -3.11328161       -1.24319279
 C           -0.05425076       -3.30108801        0.13265924
 C            0.58982103       -3.55545169       -1.07820454
 C           -2.07819215       -2.46006237        1.22951841
 C           -1.42986060       -3.11318407        0.11171119
 C           -2.94097487       -0.16550949        1.31441902
 C           -2.94084791       -1.41377729        0.69904241
 C           -2.31584448        2.16381326        1.12781835
 C           -2.79381437        0.98814770        0.52891876
 C           -0.91770398        4.06235776        0.55773439
 C           -2.14942193        3.32110500        0.37992148
 C            0.95875523        3.46100380       -0.69777392
 C           -0.29230343        4.19099896       -0.74536581
 C            2.20357229        1.52410686       -1.32214370
 C            1.22167801        2.46343384       -1.62894593
 C            3.13611635       -0.64667706       -1.94824698
 C            2.63507281        0.66013448       -2.32326549
 C            2.17902762       -2.83293048       -2.64693180
 C            2.79950976       -1.57865572       -3.00635163
 C           -0.10674241       -3.26733751       -2.32461790
 C            0.89183093       -2.90851948       -3.31824944
 C           -2.06268300       -2.63073345       -1.10590479
 C           -2.91169397       -1.50487627       -0.74505020
 C           -1.31828678       -2.58172022       -2.28077949
 C           -2.90984611        0.90015833       -0.86929366
 C           -2.85786536       -0.34547694       -1.50178414
 C           -2.44591162        3.30571068       -1.03373004
 C           -1.27474723        3.81617065       -1.73548507
 C           -2.80866852        2.04790703       -1.65284400
 C            0.34559475        2.22763896       -2.70166456
 C           -0.91372683        2.82689510       -2.72866350
 C           -2.07452168        1.97926050       -2.90233692
 C            1.79507839        0.48906869       -3.49357953
 C            1.91775758       -0.89171725       -3.93466852
 C            0.71616935       -1.69196718       -4.08762129
 C            0.54890955        1.10587386       -3.50770481
 C           -1.57943588       -1.57023642       -3.20750339
 C           -2.40864233       -0.43768403       -2.81706249
 C           -1.88716706        0.74116897       -3.48910629
 C           -0.51410918       -1.05431840       -4.05932516
 C           -0.56128701        0.39661552       -3.97500104
