   70
C70 / DATE: 7/ 1/2024 / Origin: Program Fullerene / C70 from database
 C            0.99293523       -0.14312306        4.92637138
 C            2.26556007       -0.40453299        4.27716503
 C            2.18113455       -1.71060877        3.64870442
 C            0.13195064       -1.29320250        4.69582277
 C            0.81056719       -2.16897347        3.76229128
 C           -1.18348102       -0.80436599        4.35132234
 C            0.24442888        1.04841920        4.56477221
 C           -1.13006096        0.64863867        4.32695064
 C            0.81972787        1.99665482        3.72700411
 C            2.75653580        0.53133604        3.28231021
 C            2.13568285        1.76329987        3.13939155
 C            2.75578159       -1.60869605        2.31733049
 C            3.11163085       -0.21944335        2.08694661
 C            2.15302464       -2.30587569        1.28062003
 C            0.17244733       -2.58434652        2.59695790
 C            0.97731447       -3.01454513        1.54660768
 C           -1.78110111       -1.23920881        3.10396528
 C           -1.13675538       -2.17224992        2.30193483
 C           -1.79665155        1.09381762        3.11341628
 C           -2.35418660       -0.07759278        2.46052655
 C            0.00017835        2.64716892        2.71504634
 C           -1.21040538        2.07887722        2.32329032
 C            2.14812808        2.40172245        1.83682405
 C            0.90577532        3.14237962        1.69394827
 C            2.87934521        0.34091830        0.82777666
 C            2.64415619        1.71611311        0.72970887
 C            2.39158252       -1.87022197       -0.02052207
 C            2.56659926       -0.50232127       -0.25016057
 C            2.01201949       -2.70287079       -1.06560419
 C            0.35771653       -3.67945772        0.50035503
 C            1.04958755       -3.74477344       -0.77065354
 C           -1.60142697       -2.33090078        0.99508929
 C           -1.02514476       -3.33312989        0.22866795
 C           -2.45542005       -0.07192986        1.07499180
 C           -2.22893242       -1.24977025        0.35862817
 C           -1.58555532        2.17159118        0.98458445
 C           -2.33988454        1.14163710        0.41098709
 C            0.42210821        3.35784905        0.41051430
 C           -0.92109679        3.07834235        0.15650768
 C            2.40596757        2.27596163       -0.51898269
 C            1.33385881        3.24918028       -0.63543269
 C            2.25386987        0.04380473       -1.50109590
 C            2.32962499        1.41441987       -1.68209625
 C            1.65012981       -2.12229554       -2.34667397
 C            1.63057193       -0.73578847       -2.47631917
 C            0.04573668       -3.72813855       -1.81290588
 C           -1.21505431       -3.33778092       -1.20567225
 C            0.55598617       -2.91083177       -2.89603533
 C           -2.33927014       -1.21369026       -1.03983775
 C           -1.93488347       -2.31628388       -1.81072737
 C           -2.64377308        1.19248605       -0.94309230
 C           -2.69328173       -0.00613856       -1.66764845
 C           -1.42517238        3.29649773       -1.12137130
 C           -2.46592536        2.40874701       -1.59894344
 C            0.84716351        3.21051954       -1.99939339
 C            1.44821967        2.04901043       -2.64578512
 C           -0.49259027        3.48340161       -2.22342549
 C            0.80465606       -0.13853792       -3.44133875
 C            0.67077210        1.25826050       -3.49028905
 C           -0.37464638       -2.26496487       -3.68915332
 C           -1.73294886       -2.15208504       -3.17846823
 C           -0.04749394       -0.95011769       -4.19378505
 C           -2.91327339        0.02017055       -3.04593039
 C           -2.34429217       -1.03119863       -3.85516494
 C           -1.30575564       -0.41743934       -4.67130901
 C           -2.43452662        2.46198444       -3.04444448
 C           -1.11175680        2.93829487       -3.41600740
 C           -0.44849850        1.84157758       -4.09364598
 C           -2.67879284        1.24489805       -3.78503374
 C           -1.51043714        1.00945204       -4.62038238
