   70
C70 / DATE: 7/ 1/2024 / Origin: Program Fullerene / C70 from database
 C            1.58753727       -0.01806308        4.70542765
 C            0.77603400       -1.21873899        4.68887252
 C            1.42075409       -2.18251738        3.81162425
 C            2.63106819       -0.17620260        3.70648788
 C            2.47988477       -1.48487527        3.10062617
 C            2.59257465        0.98581134        2.83620022
 C            0.74399939        1.08418860        4.28214360
 C            1.44003194        1.77957861        3.22381717
 C           -0.59640466       -0.82759417        4.40746533
 C           -0.57785483        0.56501557        3.99165904
 C           -1.40232504       -1.71888201        3.71983652
 C            0.61870289       -3.07383572        3.11539001
 C           -0.82259609       -2.97882797        3.27783389
 C            0.88389779       -3.31670325        1.70552802
 C            2.55439560       -1.57139289        1.71421828
 C            1.82291550       -2.54853609        1.03017380
 C            2.83206099        0.80922522        1.47158568
 C            3.07076891       -0.48531944        1.00337405
 C            2.34225889        1.77462093        0.57880694
 C            0.69679014        2.33644091        2.20098062
 C            1.38368802        2.67643025        1.04829455
 C           -1.18759792        0.94274711        2.79394682
 C           -0.66107279        2.01756094        2.07719763
 C           -2.24453543       -1.22434589        2.64320059
 C           -2.08267985        0.07823349        2.16101608
 C           -1.43513757       -3.33067945        2.01210111
 C           -0.37975030       -3.58875439        1.04913071
 C           -2.40865133       -2.30648595        1.68966157
 C           -0.56747367       -3.13565006       -0.25278916
 C            1.76520325       -2.49562966       -0.36131274
 C            0.53795664       -2.72578129       -1.00751465
 C            3.36390329       -0.66257291       -0.33979600
 C            2.77970554       -1.80616763       -1.01250418
 C            2.49821614        1.57371278       -0.79951691
 C            3.22413692        0.47070167       -1.23279692
 C            1.72915341        2.31194640       -1.71122907
 C            0.72348444        3.50321286        0.15996007
 C            1.06517034        3.44254471       -1.24233452
 C           -1.33526072        2.47975237        0.94726716
 C           -0.72332090        3.51150058        0.24017244
 C           -2.52669286        0.37389623        0.86525235
 C           -2.21492779        1.61174729        0.28279444
 C           -2.56976423       -1.96758749        0.35929698
 C           -1.82852031       -2.65842315       -0.59973330
 C           -2.98624291       -0.67579295        0.06538377
 C           -2.08712902       -2.39709955       -1.93548426
 C            0.33720210       -2.31947208       -2.33817385
 C           -0.96059986       -2.20330059       -2.83148575
 C            2.63395494       -1.46563144       -2.40809450
 C            2.97766400       -0.05936914       -2.55458930
 C            1.35148101       -1.67667018       -3.03905211
 C            1.43326853        1.79227182       -2.98622800
 C            1.95465168        0.56248127       -3.36390070
 C            1.03357045       -0.47708159       -3.79768630
 C            0.29337890        2.21043720       -3.66758859
 C           -0.08043341        3.97074674       -1.95759582
 C           -1.22416632        3.88954435       -1.05828805
 C           -0.46080045        3.35526113       -3.20576738
 C           -2.65939807        1.90190174       -1.02066816
 C           -2.21310690        3.04507039       -1.68262706
 C           -1.84834868        2.94225855       -3.08457092
 C           -3.42486771       -0.42310110       -1.22372168
 C           -3.08434836       -1.39015583       -2.25200618
 C           -3.25241847        0.89918012       -1.78541144
 C           -1.28227852       -1.09829455       -3.72658525
 C           -0.30351380       -0.14758744       -4.01989639
 C           -0.65378158        1.20425375       -4.12176669
 C           -1.98884222        1.65523946       -3.73784607
 C           -2.63328955       -0.66349398       -3.42264083
 C           -2.87133249        0.74310277       -3.18552520
