   70
C70 / DATE: 7/ 1/2024 / Origin: Program Fullerene / C70 from database
 C            1.21351404        0.08785117        4.36580205
 C            2.49786401       -0.22342597        3.78887397
 C            2.40904470       -1.56120897        3.21658525
 C            0.37708601       -1.08932964        4.20556988
 C            1.01376980       -1.93772023        3.22544742
 C           -0.95846964       -0.62693792        3.91972595
 C            0.46779015        1.21354315        3.83744989
 C           -0.93192339        0.82630890        3.85479411
 C            0.95441520        1.93154403        2.74640426
 C            3.01107010        0.63486399        2.74371708
 C            2.17225455        1.57838519        2.14376637
 C            3.10620321       -1.52186469        1.94973139
 C            3.78590309       -0.24169026        1.89077031
 C            2.46900786       -1.97699934        0.79988049
 C            0.35991725       -2.15611087        2.01491160
 C            1.10117219       -2.30117869        0.83598029
 C           -1.70509236       -1.28909149        2.96150537
 C           -1.02991054       -1.98900541        1.94303187
 C           -2.92443136       -0.70227068        2.67404644
 C           -1.83186012        1.46171585        2.99634249
 C           -2.96674553        0.74958445        2.60135891
 C            0.06042551        2.74293711        2.05767688
 C           -1.37261061        2.50805367        2.19478408
 C            0.32924068        3.09059546        0.67530827
 C            2.44772715        1.97493644        0.82843733
 C            1.44253039        2.55489428        0.04865866
 C            4.15540334        0.23003204        0.64613054
 C            3.60915009        1.50410191        0.21625850
 C            3.07622365       -1.69337517       -0.42455647
 C            4.01320559       -0.66106728       -0.49029098
 C            2.49764031       -2.16866802       -1.59499323
 C            0.44086531       -2.63867451       -0.34652683
 C            1.17208838       -2.75067643       -1.52800710
 C           -1.69391446       -2.31007623        0.75086328
 C           -0.95573003       -2.61897330       -0.39532518
 C           -3.72226334       -1.23565130        1.60023499
 C           -3.06743483       -2.08531732        0.63457148
 C           -3.65377679        1.09730775        1.36773807
 C           -4.29635338       -0.11197506        0.87921261
 C           -1.98900042        2.76017776        0.89946401
 C           -0.93491072        3.12294450       -0.03605054
 C           -3.04654777        1.96585009        0.46619946
 C           -0.99532152        2.65587980       -1.34360151
 C            1.40928654        2.34907961       -1.33374882
 C            0.18445346        2.31183756       -2.00820157
 C            3.71374239        1.53239109       -1.23067148
 C            4.05730590        0.18557640       -1.66692837
 C            2.56502997        1.95551607       -2.00156598
 C            2.57795891       -1.38049633       -2.81981659
 C            3.21172464       -0.14434871       -2.79795742
 C            2.45448392        1.05153873       -3.13203829
 C            0.52390981       -2.51097110       -2.80566959
 C            1.31378282       -1.52237028       -3.52240571
 C           -1.60482389       -2.69240099       -1.62975773
 C           -0.85932425       -2.45106494       -2.85021582
 C           -3.62827470       -1.74499681       -0.65986869
 C           -4.22773619       -0.42342667       -0.53501384
 C           -2.90117131       -2.06269575       -1.79512109
 C           -3.25826199        1.80553645       -0.90391631
 C           -2.22264181        2.21827300       -1.83750542
 C           -3.85722198        0.57979411       -1.41896557
 C           -1.51538089       -1.35603316       -3.55109358
 C           -2.77044866       -1.08570962       -2.86593645
 C           -2.27171496        1.32308101       -2.98246989
 C           -3.17120257        0.22938091       -2.65197220
 C            0.11539003        1.73175888       -3.27472908
 C            1.22322031        0.92735973       -3.75756958
 C            0.69427535       -0.39618855       -4.05514471
 C           -1.10572284        1.06877521       -3.68849897
 C           -0.75785378       -0.29941459       -4.04509901
