   70
C70 / DATE: 7/ 1/2024 / Origin: Program Fullerene / C70 from database
 C            1.69819480        0.09608295        4.58123393
 C            0.88756072       -1.10391927        4.48537944
 C            1.50047490       -1.98030541        3.50548237
 C            2.71160822        0.03068968        3.54232256
 C            2.60440902       -1.25361491        2.89217888
 C            2.58821900        1.21433744        2.72535098
 C            0.84215416        1.22965528        4.28440978
 C            1.47863905        2.00029016        3.23415030
 C           -0.48856967       -0.70126032        4.28031381
 C           -0.49717319        0.73343876        4.03837148
 C           -1.29410507       -1.51277066        3.50038905
 C            0.68398377       -2.75977241        2.68746866
 C           -0.70329863       -2.65197235        2.80678706
 C            1.22745844       -3.23367816        1.49755194
 C            2.76041640       -1.33371236        1.51263340
 C            2.34545642       -2.51206689        0.91089954
 C            2.71658201        1.10354595        1.34608922
 C            2.82474959       -0.16143811        0.74143601
 C            2.27914001        2.17964991        0.57911311
 C            0.67032909        2.63598784        2.29964817
 C            1.24692707        2.98124194        1.07788652
 C           -1.18695302        1.24800201        2.94271602
 C           -0.71098920        2.41579711        2.34782489
 C           -2.23482439       -0.89409213        2.58513148
 C           -2.07263595        0.43584058        2.22645931
 C           -1.55749233       -2.94206609        1.66475708
 C           -2.53041388       -1.86359614        1.55275131
 C            0.36015229       -3.66994731        0.41345220
 C           -1.01630219       -3.47992774        0.49953630
 C            2.21729023       -2.57751676       -0.52726454
 C            1.05022646       -3.38902780       -0.83769191
 C            2.81665211       -0.24814571       -0.66030512
 C            2.47812352       -1.45119128       -1.29255350
 C            2.58694436        2.18876364       -0.77355467
 C            2.90382501        0.92532167       -1.41077929
 C            1.79291951        2.97928579       -1.69860278
 C            0.52855236        3.81332269        0.22579156
 C            0.75022496        3.75291598       -1.20854881
 C           -1.51787229        3.03964282        1.40487378
 C           -0.89765389        3.93827530        0.44872646
 C           -2.55790144        0.86728633        0.99066929
 C           -2.48313093        2.22319631        0.68820171
 C           -2.89168372       -1.43096584        0.28302844
 C           -2.79365469       -0.06453317       -0.03193527
 C           -1.75407912       -3.36520726       -0.67617442
 C           -2.82043241       -2.37873089       -0.72923104
 C            0.31082245       -3.10495789       -1.98149926
 C           -1.06488644       -3.31836758       -1.95601177
 C            2.01767327       -1.44769752       -2.60640796
 C            0.87364761       -2.27694495       -2.95507197
 C            2.37404606        0.96722616       -2.76356786
 C            1.61168210        2.19771064       -2.91111520
 C            1.91691427       -0.20404886       -3.34670805
 C            0.37258676        2.17610031       -3.54242497
 C           -0.55077713        3.71978712       -1.86280261
 C           -1.56680005        3.76457607       -0.82635079
 C           -2.48450541        2.64493529       -0.69874986
 C           -0.75446637        2.87534524       -2.94589431
 C           -2.85123854        0.36672464       -1.36998279
 C           -2.50722490        1.67921557       -1.69452002
 C           -1.87051216        1.94418545       -2.90860940
 C           -2.98093924       -1.97013793       -2.10362222
 C           -1.92808337       -2.60558654       -2.88221944
 C           -2.96071988       -0.55863552       -2.40545423
 C            0.02706711       -1.51009192       -3.85971777
 C            0.65368390       -0.21385635       -4.06915849
 C           -0.13047026        0.93394086       -4.11121148
 C           -1.55319000        0.85109555       -3.81112955
 C           -1.35435838       -1.59799896       -3.75273508
 C           -2.14199888       -0.38563006       -3.59140959
