   70
C70 / DATE: 7/ 1/2024 / Origin: Program Fullerene / C70 from database
 C            1.49935881       -0.11465589        4.89685348
 C            0.69722884       -1.30950360        4.74437772
 C            1.37849867       -2.18449265        3.80321496
 C            2.59817380       -0.20733613        3.95139438
 C            2.40231509       -1.38996357        3.14435275
 C            2.66790097        1.05566522        3.26560188
 C            0.67698562        1.01568756        4.49637380
 C            1.45498693        1.80025252        3.57181116
 C           -0.66088176       -0.89126919        4.43935678
 C           -0.59467062        0.50493722        4.03839915
 C           -1.44771076       -1.75514729        3.69682452
 C            0.60131568       -3.03410984        3.03553946
 C           -0.84143072       -2.98594842        3.21305878
 C            0.85382775       -3.11659966        1.60609551
 C            2.38509171       -1.25189965        1.75397958
 C            1.65230222       -2.15929258        0.98198790
 C            3.08040911        1.07582366        1.94321350
 C            2.89066831       -0.08237693        1.16139682
 C            2.92663593        2.30653615        1.32877034
 C            0.81558069        2.42301164        2.50444652
 C            1.66957714        2.99365318        1.56855238
 C           -1.05436957        0.87643547        2.77382997
 C           -0.41770106        1.90959582        2.06171354
 C           -2.24671085       -1.21641110        2.60803158
 C           -2.00250758        0.07181599        2.13397948
 C           -1.45131835       -3.30574809        1.93924172
 C           -0.38949402       -3.51022895        0.97053475
 C           -2.43926406       -2.28325120        1.64504613
 C           -0.63140901       -3.08566918       -0.32638174
 C            1.48234016       -1.92697614       -0.38334290
 C            0.41399480       -2.53167918       -1.06351182
 C            2.90837010        0.01631006       -0.24010174
 C            2.25280817       -0.94983808       -1.01035508
 C            3.24646509        2.42824639       -0.06805833
 C            3.29972924        1.21395186       -0.84365582
 C            1.15301024        3.40392975        0.28486595
 C            2.23513452        3.27995168       -0.67018605
 C           -0.90436600        2.25599710        0.79245054
 C           -0.10637402        2.98130550       -0.10068707
 C           -2.43147959        0.40291948        0.84945646
 C           -2.06099171        1.63385776        0.31560980
 C           -2.61054651       -1.93540588        0.31463609
 C           -1.92539214       -2.68319699       -0.63493434
 C           -2.90345614       -0.60965038        0.00258432
 C           -2.22315551       -2.45122766       -1.96374606
 C            0.17211487       -2.22923530       -2.40737812
 C           -1.12031895       -2.40254377       -2.90489583
 C            2.15615254       -0.78531516       -2.39071045
 C            1.07751094       -1.44051705       -3.11100578
 C            2.78052327        1.55783275       -2.15327313
 C            1.93271179        2.72623449       -1.97571305
 C            2.32311894        0.53912751       -2.96720303
 C           -0.40759488        2.95407935       -1.45980252
 C            0.60359241        2.64631508       -2.38194915
 C           -2.58005344        2.01606208       -0.91816667
 C           -1.73456589        2.77890566       -1.81779185
 C           -3.22061207       -0.31033663       -1.32420932
 C           -3.08075473       -1.32464288       -2.27718287
 C           -3.27856753        1.02601130       -1.71644046
 C           -1.57310883       -1.61947585       -4.04315519
 C           -2.84347790       -1.00962681       -3.67539150
 C            0.60055166       -0.50809282       -4.12743860
 C            1.16103581        0.78899621       -3.80162259
 C            0.30679522        1.84599925       -3.48647114
 C           -0.71342490       -0.57874065       -4.56905542
 C           -2.05100714        2.38693025       -3.17690169
 C           -3.11246944        1.39794885       -3.11394460
 C           -2.81598325        0.37362581       -4.09422942
 C           -0.98644296        1.84654524       -3.99774044
 C           -1.49520512        0.64590732       -4.64094792
