   70
C70 / DATE: 7/ 1/2024 / Origin: Program Fullerene / C70 from database
 C            1.60530724       -0.38749224        5.03009456
 C            0.73831358       -1.54627567        4.94678278
 C            1.21567627       -2.37441742        3.85490635
 C            2.61192668       -0.51141043        3.98887348
 C            2.31803809       -1.69022845        3.20681981
 C            2.66562795        0.75054306        3.29383114
 C            0.80732531        0.78707209        4.72012940
 C            1.53497508        1.55535963        3.73927397
 C           -0.58895411       -1.08222445        4.58138148
 C           -0.52590810        0.35239608        4.37403364
 C            0.06860588       -2.71754896        3.04249681
 C           -1.05414447       -1.90561525        3.47793978
 C            0.24676824       -2.84999920        1.67727576
 C            2.29330396       -1.57921706        1.81761806
 C            1.44623989       -2.42111344        1.09756680
 C            2.95140791        0.75791995        1.93440450
 C            2.79251579       -0.42700457        1.19356155
 C            2.73327916        1.96667327        1.29506053
 C            0.82715663        2.25629787        2.76692454
 C            1.58746077        2.75193258        1.71895955
 C           -1.11537090        0.86087829        3.22249508
 C           -0.51357949        1.91846967        2.51956698
 C           -1.83837783       -1.30864145        2.49008218
 C           -2.05506544        0.06792318        2.56959536
 C           -0.89403435       -2.82790817        0.89124233
 C           -1.90437677       -1.92508788        1.23335840
 C           -0.75220107       -3.24024929       -0.42002899
 C            1.55523522       -2.45651797       -0.29091116
 C            0.57100713       -3.14278738       -1.00361225
 C            2.78345084       -0.37019271       -0.21012083
 C            2.31159279       -1.47619432       -0.93609242
 C            2.80731447        2.02800735       -0.14192767
 C            2.98977158        0.85919505       -0.85738820
 C            0.93313843        3.25320571        0.53223320
 C            1.80178026        2.97129188       -0.60017331
 C           -1.16157288        2.41259365        1.37432604
 C           -0.43520558        3.09420886        0.38698387
 C           -2.86253532        0.66780495        1.62206772
 C           -2.45015483        1.95392219        1.09324975
 C           -2.68905449       -1.33882438        0.23195972
 C           -3.32421649       -0.12896423        0.50359658
 C           -1.70613227       -2.80079806       -1.41350277
 C           -2.61031484       -1.79526713       -1.08847255
 C            0.41047042       -2.92495814       -2.43022004
 C           -1.01346300       -2.77279042       -2.69426275
 C            2.37982726       -1.47897366       -2.32914464
 C            1.32924418       -2.12858611       -3.09648397
 C            2.83164665        0.95298086       -2.23274965
 C            2.71996126       -0.25431839       -3.01573223
 C            1.24185703        2.79048204       -1.86336949
 C            1.87858990        1.92431467       -2.75355496
 C           -0.96811402        3.27238687       -0.88760188
 C           -0.10614934        3.09490222       -2.04932256
 C           -2.99574855        2.06349745       -0.24974716
 C           -3.62109154        0.79020770       -0.57901503
 C           -2.28122247        2.75185437       -1.21635993
 C           -3.20877677       -1.06302985       -2.11409546
 C           -3.58779167        0.31905155       -1.88242266
 C           -1.44569945       -1.89917946       -3.68274002
 C           -2.66429648       -1.14152429       -3.45939000
 C            0.87327304       -1.19624875       -4.11819796
 C            1.72408063       -0.02415447       -4.04981762
 C            1.11369301        1.27159427       -3.80385492
 C           -0.48847153       -1.01726752       -4.33236732
 C           -0.87358054        2.40070798       -3.07249855
 C           -2.23715264        2.25014826       -2.58123595
 C           -2.97288693        1.12451690       -2.92653964
 C           -2.43923287        0.21778640       -3.92530006
 C           -0.27284740        1.38537425       -3.81495774
 C           -1.04213807        0.32951007       -4.30547938
