   70
C70 / DATE: 7/ 1/2024 / Origin: Program Fullerene / C70 from database
 C            1.59903295        0.13182415        4.71355130
 C            0.81245552       -1.07651749        4.55376611
 C            1.47021960       -1.91576552        3.56565957
 C            2.72312154        0.04909913        3.79773454
 C            2.73589563       -1.28186539        3.22677037
 C            2.65536021        1.18366599        2.89412258
 C            0.77023977        1.24861582        4.29688676
 C            1.45933704        1.93762539        3.23034969
 C           -0.56111440       -0.67923289        4.31262471
 C           -0.56236293        0.74933493        4.03045331
 C           -1.34149795       -1.50366311        3.51980964
 C            0.69509106       -2.50333353        2.56182981
 C           -0.68739202       -2.53007482        2.71863149
 C            1.25033903       -2.73390246        1.29837782
 C            3.22411584       -1.42983726        1.94160889
 C            2.58077810       -2.38573609        1.06689160
 C            2.96856546        0.99522104        1.54468333
 C            3.47809599       -0.23940427        1.13722997
 C            2.38671314        1.84226809        0.59329998
 C            0.71862846        2.45566560        2.18385089
 C            1.39910852        2.73821002        1.01509411
 C           -1.24049209        1.21537358        2.90379117
 C           -0.65821174        2.21251847        2.10500432
 C           -2.36011676       -0.90079502        2.68162244
 C           -2.30054399        0.45967426        2.40096329
 C           -1.53235998       -2.78677344        1.57005993
 C           -2.63056737       -1.83107068        1.60051955
 C            0.43435968       -3.08028924        0.21090947
 C           -0.95905560       -3.10583952        0.34760702
 C            1.00941232       -3.20370073       -1.05646193
 C            3.00352218       -2.04635922       -0.27604627
 C            3.36325496       -0.63758863       -0.25757034
 C            2.26412450       -2.52841522       -1.33760838
 C            2.51411278        1.54308327       -0.76915650
 C            2.76688464        0.23230930       -1.16431401
 C            2.05694694        2.45218733       -1.71479515
 C            0.75828129        3.54366836        0.09299584
 C            1.23741054        3.55954179       -1.27037289
 C           -1.36370268        2.71979770        1.00401471
 C           -0.69301598        3.50986377        0.06782536
 C           -3.02147517        0.93660027        1.31645188
 C           -2.57438858        2.13932090        0.64047648
 C           -3.13848521       -1.34784465        0.39733422
 C           -3.48954239       -0.00195133        0.30520111
 C           -1.77208385       -3.00993816       -0.77922135
 C           -2.88216127       -2.06923164       -0.76527031
 C            0.18458657       -3.08008318       -2.24720516
 C           -1.19217870       -3.00410991       -2.10934441
 C            2.02785071       -1.65736402       -2.47206623
 C            2.16353261       -0.27766136       -2.32035193
 C            0.87200523       -2.18624863       -3.16958522
 C            1.48725889        1.95134957       -2.95279961
 C            1.48574658        0.57804956       -3.19515877
 C            0.08225411        3.64723426       -2.14352746
 C           -1.10809280        3.48210038       -1.32803918
 C            0.29511891        2.73951286       -3.24955184
 C           -2.91946291        2.01329471       -0.76859380
 C           -3.45168398        0.67583870       -0.98144645
 C           -2.09544129        2.58630581       -1.73295326
 C           -2.92146519       -1.40662749       -2.05958344
 C           -1.95295680       -2.06933589       -2.92384316
 C           -3.09633101       -0.02480008       -2.12793503
 C            0.14063292       -1.33318276       -3.98198428
 C            0.56637680        0.05077597       -4.10452804
 C           -1.31392255       -1.34259584       -3.91892774
 C           -0.80881169        2.10436080       -3.79465116
 C           -2.03229580        2.00937486       -3.00444222
 C           -2.59726821        0.68454120       -3.21679130
 C           -0.60719638        0.82949095       -4.45287047
 C           -1.77509376        0.00344068       -4.20100597
