   70
C70 / DATE: 7/ 1/2024 / Origin: Program Fullerene / C70 from database
 C            1.47433827       -0.24831792        4.95012891
 C            0.64602513       -1.43977601        4.94309444
 C            1.19170811       -2.36022201        3.95851980
 C            2.55781535       -0.46177233        4.01063900
 C            2.36518441       -1.75168097        3.37311989
 C            2.63016419        0.70614201        3.15204031
 C            0.67707667        0.85515923        4.44122075
 C            1.42164291        1.48397402        3.36588055
 C           -0.67511781       -1.05448586        4.48417855
 C           -0.65050767        0.35507827        4.14669936
 C            0.11560036       -2.74769424        3.07219970
 C           -1.06327522       -1.98505827        3.44390453
 C            0.37882958       -2.89997858        1.71390314
 C            2.53294336       -1.81135076        1.99473690
 C            1.64232704       -2.55456892        1.20680269
 C            3.04172206        0.52186428        1.84055586
 C            3.24934760       -0.78462813        1.39180070
 C            2.67370943        1.48618740        0.90688413
 C            0.72621681        1.93085470        2.24409935
 C            1.43195574        2.11108700        1.05125057
 C           -1.24956040        0.74226289        2.95417260
 C           -0.65868461        1.74468883        2.18493810
 C           -1.86185737       -1.51785633        2.40979250
 C           -2.11855146       -0.14529218        2.32282896
 C           -0.71320667       -2.91847726        0.84790626
 C           -1.88556929       -2.26087305        1.23562484
 C           -0.48997365       -3.22522356       -0.48710874
 C            1.86791301       -2.62158182       -0.17752466
 C            0.84525576       -3.04781231       -1.02328405
 C            3.67230473       -0.97408797        0.08664988
 C            2.94916927       -1.93388927       -0.73081153
 C            3.28444903        1.44200315       -0.33749400
 C            3.92534280        0.20047179       -0.72605626
 C            2.58498610        1.95920345       -1.49656672
 C            0.74112491        2.57887836       -0.06943352
 C            1.31683964        2.50931663       -1.34363241
 C           -1.34204043        2.18610217        1.05571251
 C           -0.62222017        2.83749044        0.05384768
 C           -2.85638556        0.32533276        1.23778000
 C           -2.57455875        1.60110647        0.74785314
 C           -2.84775403       -1.92521181        0.29269699
 C           -3.44520952       -0.60747076        0.38689576
 C           -1.44417845       -2.81307078       -1.50228231
 C           -2.62559708       -2.20993346       -1.11418209
 C            0.71660334       -2.46192485       -2.35104806
 C           -0.70005972       -2.26040909       -2.61896062
 C            2.83849872       -1.38109109       -2.07492651
 C            3.52742756       -0.10333691       -2.08597228
 C            2.83109773        1.05317526       -2.60835708
 C            1.64123940       -1.51231810       -2.77462102
 C            1.81009100        0.84203230       -3.51831400
 C            1.22900308       -0.49175180       -3.63543402
 C            0.50664878        2.64392409       -2.47333567
 C            0.71286629        1.78981846       -3.55800457
 C           -1.30505432        3.39520797       -1.01930932
 C           -0.72909832        3.26855029       -2.34560133
 C           -3.30649008        2.08912742       -0.33181885
 C           -2.73213219        3.15797316       -1.12622047
 C           -3.83881138       -0.20955121       -0.95193107
 C           -3.13551561       -1.08489066       -1.87960635
 C           -3.92815484        1.14148940       -1.24612508
 C           -1.12323743       -1.08065256       -3.22745447
 C           -0.18859857       -0.32456865       -3.92841420
 C           -0.42025823        1.09272125       -4.14230368
 C           -2.36962960       -0.52852889       -2.90637558
 C           -1.79512794        2.88419159       -3.25556883
 C           -3.04473624        2.89728107       -2.51962488
 C           -3.61234079        1.56385868       -2.59689704
 C           -1.68859063        1.60686894       -3.93626945
 C           -2.71538408        0.73591460       -3.38748764
