   70
C70 / DATE: 7/ 1/2024 / Origin: Program Fullerene / C70 from database
 C            1.18405446       -0.01610329        4.25126458
 C            2.46518955       -0.33812926        3.66724108
 C            2.44936599       -1.74974401        3.32538906
 C            0.36292416       -1.21738625        4.21153587
 C            1.07712928       -2.21192672        3.44503893
 C           -0.95661022       -0.82708321        3.77036412
 C            0.40415332        1.05721328        3.66799410
 C           -0.97554776        0.62345628        3.65946904
 C            0.87717741        1.75093004        2.56055561
 C            2.89097853        0.38638808        2.48817268
 C            2.10861512        1.41584412        1.97260615
 C            3.12385238       -1.90351694        2.04860599
 C            3.45956004       -0.57365212        1.56088348
 C            2.62363924       -2.83272259        1.15110944
 C            0.46520124       -2.78797748        2.33451400
 C            1.28123666       -3.35665790        1.35563385
 C           -1.60339086       -1.57177431        2.79055050
 C           -0.88392617       -2.52398666        2.05020039
 C           -2.76535316       -1.01807779        2.25802724
 C           -1.85137897        1.20021295        2.74569187
 C           -2.92397788        0.42627888        2.30866704
 C           -0.03259601        2.52665857        1.84203111
 C           -1.40576050        2.25785348        1.94410558
 C            0.44984320        3.33107411        0.81522161
 C            2.38565283        1.85496154        0.67950781
 C            1.71093281        2.97134811        0.19645331
 C            3.37680713       -0.30085345        0.19683725
 C            3.05104271        0.99988901       -0.20624367
 C            2.78111977       -2.58786931       -0.26932829
 C            3.26304109       -1.36127086       -0.71276069
 C            0.73552093       -3.69334430        0.05225111
 C            1.64323273       -3.17636869       -0.95750299
 C           -1.46898431       -3.10789022        0.92534382
 C           -0.62721253       -3.59969791       -0.15139126
 C           -3.28640671       -1.47725371        0.98225473
 C           -2.63676813       -2.49758514        0.31580137
 C           -3.67817540        0.83226146        1.13738062
 C           -3.73230662       -0.31201555        0.23765040
 C           -2.30207538        2.84913367        1.05134821
 C           -3.46613019        2.09615236        0.60994859
 C           -0.44287802        3.78928210       -0.23333398
 C           -1.80762904        3.61067057       -0.08442309
 C            1.57983189        3.17957235       -1.23641747
 C            0.18258824        3.46763354       -1.50740202
 C            3.15961051        1.34481098       -1.54971769
 C            2.27612567        2.35582650       -2.10262594
 C            3.12482284       -1.08356457       -2.06826991
 C            3.26454752        0.28285409       -2.52712695
 C            1.14769567       -2.53878209       -2.09493144
 C            2.01209180       -1.68815971       -2.78711002
 C           -1.11971132       -3.03465687       -1.39473253
 C           -2.37840193       -2.36354376       -1.10757737
 C           -0.23579319       -2.45921234       -2.30647002
 C           -3.37457939       -0.15605444       -1.10264702
 C           -2.67853492       -1.17304894       -1.76732960
 C           -3.59264889        2.27348116       -0.82394705
 C           -2.58959160        3.23524084       -1.24802779
 C           -3.48081965        1.10732973       -1.68359200
 C           -0.51311360        2.71075570       -2.45175514
 C           -1.90578730        2.68200041       -2.40523806
 C           -2.60837395        1.46882471       -2.78563637
 C            1.56548218        1.75031896       -3.21489945
 C            2.25931747        0.51848609       -3.55087837
 C            1.48799342       -0.70048034       -3.71441230
 C            0.17204752        1.77539491       -3.23318043
 C           -0.75171409       -1.56435179       -3.24176348
 C           -2.01572758       -0.89751254       -2.96213683
 C           -1.90931642        0.47117167       -3.43963406
 C            0.11913454       -0.60226978       -3.89245173
 C           -0.52033815        0.70121460       -3.79475555
