   70
C70 / DATE: 7/ 1/2024 / Origin: Program Fullerene / C70 from database
 C            1.12562634        0.26798700        4.79276014
 C            2.42511494        0.04260936        4.19688777
 C            2.49922484       -1.36785282        3.87401163
 C            0.31477203       -0.91855384        4.53910950
 C            1.13805364       -1.86989473        3.82835972
 C           -0.92142986       -0.48475853        3.92970330
 C            0.36351379        1.41631703        4.35401786
 C           -0.98254691        0.95349316        4.07585802
 C            0.80576303        2.15007343        3.17980869
 C            2.78832470        0.77469855        2.99356743
 C            1.90154788        1.69759877        2.44133145
 C            3.30502509       -1.49827321        2.67840567
 C            3.46843631       -0.15946279        2.11527670
 C            2.99626297       -2.53664008        1.81551110
 C            0.68010487       -2.42705442        2.63531431
 C            1.62424455       -3.03376858        1.80835358
 C           -1.31892594       -1.03111158        2.71371153
 C           -0.55278508       -2.02417520        2.09315670
 C           -2.23763218       -0.32101892        1.94454700
 C           -1.47507064        1.72062721        2.95118632
 C           -0.39545399        2.56084816        2.47090493
 C           -2.23807584        1.07853465        1.99367957
 C           -0.31139233        2.79492602        1.10090248
 C            1.92830816        1.93744968        1.06713644
 C            0.94922143        2.76512410        0.51359687
 C            3.37629476        0.01728655        0.73481982
 C            2.70360540        1.12974027        0.22384050
 C            3.41749795       -2.41104464        0.43731548
 C            3.59531602       -1.07683627       -0.09982312
 C            1.27643096       -3.35766915        0.44027240
 C            2.43412423       -3.08544026       -0.38828620
 C           -0.92362411       -2.44850121        0.81040932
 C            0.03448347       -2.99235788       -0.05001561
 C           -2.81438005       -0.94273111        0.83970418
 C           -2.15006534       -2.03936112        0.27050915
 C           -3.69271648       -0.17465281        0.07315984
 C           -2.47244131        1.76982710        0.81515456
 C           -1.43586554        2.55257661        0.29717737
 C           -3.43154300        1.24667423       -0.03105756
 C           -1.34099665        2.77919747       -1.08293895
 C            1.06368238        3.14845238       -0.81297866
 C           -0.15556853        3.32431177       -1.57974718
 C            2.55858884        1.25700565       -1.15853927
 C            2.00026449        2.42982747       -1.65591703
 C            3.02690155       -1.07559039       -1.43589827
 C            2.24163599       -2.28772155       -1.58733691
 C            2.50107142        0.10172605       -1.94095340
 C           -0.09215337       -2.78391123       -1.42051147
 C            0.95614686       -2.17409200       -2.10998305
 C           -2.45971444       -2.45676096       -1.02758430
 C           -1.36795297       -2.71090738       -1.94663630
 C           -4.14119321       -0.63731839       -1.22186207
 C           -3.51613274       -1.80933872       -1.78191478
 C           -3.40979255        1.58997247       -1.43559548
 C           -2.30325127        2.24941416       -1.95868147
 C           -3.97275245        0.46032773       -2.16273389
 C           -1.99996157        2.04077399       -3.30596939
 C            0.19968615        3.15257455       -2.97319583
 C            1.46390167        2.43626099       -3.00708637
 C           -0.71994234        2.45540120       -3.84091866
 C            1.53623706        0.00980683       -2.94123753
 C            0.67192345       -1.09449615       -2.95155585
 C            1.22132501        1.16074122       -3.64963352
 C           -0.05263151        1.25416601       -4.32595197
 C           -1.59106204       -1.89553887       -3.12531889
 C           -2.97449290       -1.45000248       -3.08431746
 C           -3.26772923       -0.04766998       -3.32674394
 C           -2.28352614        0.74599967       -3.89872221
 C           -0.60104504       -1.00373384       -3.53098526
 C           -0.98881469        0.15588960       -4.19882950
