   70
C70 / DATE: 7/ 1/2024 / Origin: Program Fullerene / C70 from database
 C            1.57478947        0.00362697        4.60101012
 C            0.74644773       -1.18233009        4.49271858
 C            1.22100765       -1.96699006        3.36637696
 C            2.56824018       -0.05534064        3.54524435
 C            2.40081063       -1.30705708        2.83407876
 C            2.48032397        1.17161747        2.77744504
 C            0.72656483        1.15348861        4.34037668
 C            1.29222388        1.87478554        3.22503759
 C           -0.63445482       -0.74977699        4.48938341
 C           -0.63657237        0.68585141        4.22680375
 C           -1.55573106       -1.53893802        3.82069048
 C            0.28953675       -2.50135671        2.47675854
 C           -1.07071939       -2.47387940        2.80962969
 C            0.66078158       -2.70809026        1.14347909
 C            2.58657612       -1.29752140        1.46005652
 C            1.88848007       -2.21779688        0.68336200
 C            2.71680872        1.10350978        1.40617883
 C            3.05583963       -0.13260710        0.85495893
 C            2.13493052        2.06946167        0.57794132
 C            0.45026125        2.38485670        2.25121878
 C            1.03835279        2.79472395        1.06548348
 C           -1.44904213        1.19039519        3.20939262
 C           -0.91483576        2.05616663        2.24225957
 C           -2.73016908       -0.88790898        3.27646410
 C           -2.63468089        0.51960455        2.93394929
 C           -2.06276935       -2.52809616        1.74578025
 C           -3.12400772       -1.60891686        2.07989370
 C           -0.32561688       -3.04494693        0.21823030
 C           -1.61824388       -2.59149054        0.43368522
 C            0.04359745       -3.37711227       -1.07270457
 C            2.21231446       -2.33438041       -0.66953029
 C            1.41004179       -3.12677370       -1.48432244
 C            3.39201218       -0.18678072       -0.48803093
 C            3.05158653       -1.37950655       -1.24544504
 C            2.42504256        2.04993019       -0.79341929
 C            3.11251410        0.96535420       -1.32762971
 C            1.73968618        2.88570459       -1.66786293
 C            0.27021630        3.56555577        0.21271141
 C            0.69889966        3.74905858       -1.15406753
 C           -1.69720560        2.44111048        1.13962736
 C           -1.16418910        3.35167570        0.22175112
 C           -3.26783077        0.69040893        1.64290733
 C           -3.51116071       -0.63431648        1.08803907
 C           -2.82426353        1.68908514        0.78575683
 C           -2.25855877       -1.85476551       -0.57590155
 C           -3.18608411       -0.85573497       -0.24571580
 C           -0.81704024       -2.94123838       -2.15443136
 C           -1.77286982       -1.95690683       -1.88841612
 C            1.39666823       -2.90857425       -2.92143159
 C            0.00529972       -2.87067756       -3.34671631
 C            2.86299578       -0.97457396       -2.63065010
 C            2.75725260        0.47908886       -2.65385863
 C            2.06317773       -1.74032080       -3.46563483
 C            1.28317016        2.35432941       -2.94276032
 C            1.73248672        1.10643844       -3.36591131
 C           -0.46685725        3.60899694       -2.00940664
 C           -1.61149479        3.33677920       -1.16276613
 C           -0.13158404        2.67206197       -3.06698619
 C           -3.17108533        1.55989678       -0.55755242
 C           -3.34100245        0.22278069       -1.10188545
 C           -2.52360313        2.37761668       -1.56400887
 C           -1.98863490       -0.91222688       -2.80333906
 C           -1.02543620        1.65946383       -3.40986268
 C           -2.73352259        0.19098559       -2.41363147
 C           -2.22691790        1.52441126       -2.70911240
 C           -0.15723896       -1.74427187       -4.23293082
 C            1.12858721       -1.07239954       -4.34950847
 C            0.89925645        0.35391388       -4.18995714
 C           -1.14498349       -0.74080037       -3.89835358
 C           -0.53837457        0.56166958       -4.11493906
