   70
C70 / DATE: 7/ 1/2024 / Origin: Program Fullerene / C70 from database
 C            1.22543462       -0.01773240        4.31917504
 C            2.51385590       -0.36610318        3.76573334
 C            2.45277390       -1.75899681        3.35039298
 C            0.40110091       -1.21504323        4.28091339
 C            1.06163496       -2.16927758        3.42075074
 C           -0.93340469       -0.80076213        3.93050179
 C            0.46126955        1.04334356        3.68899494
 C           -0.92811589        0.64476054        3.77880161
 C            0.91742009        1.61146009        2.50254948
 C            3.00651835        0.39299636        2.63748611
 C            2.25657012        1.44700539        2.11738244
 C            3.14912332       -1.87360166        2.08232747
 C            3.61744875       -0.54712363        1.71269609
 C            2.60109135       -2.67976517        1.10125436
 C            0.41990490       -2.59974619        2.25781564
 C            1.20237479       -3.08018284        1.20561124
 C           -1.64405977       -1.53441622        2.99378513
 C           -0.92580870       -2.26026819        2.02412302
 C           -2.88273369       -1.00529706        2.66015249
 C           -1.85013439        1.19374945        2.89554674
 C           -3.00085296        0.44427876        2.65310255
 C           -0.02350993        2.10842660        1.59207940
 C           -1.39157095        2.06104285        1.89930680
 C            0.39309386        2.61587425        0.35874734
 C            2.68591260        1.98118643        0.91019888
 C            1.73916814        2.66357379        0.05227679
 C            3.69689116       -0.18696873        0.36804139
 C            3.53437139        1.16356402        0.05914681
 C            2.86363090       -2.35920005       -0.28693437
 C            3.48075013       -1.15438673       -0.62358656
 C            0.65325347       -3.11065859       -0.13746399
 C            1.72104683       -2.80473252       -1.06709985
 C           -1.45732082       -2.42770513        0.73295493
 C           -0.60263374       -2.57671527       -0.35131323
 C           -3.57811171       -1.51299871        1.50251370
 C           -2.79412355       -2.16088155        0.47896200
 C           -3.89442751        0.81732380        1.57348045
 C           -4.29079579       -0.40557794        0.89060040
 C           -2.31137484        2.59561277        0.99618811
 C           -3.60330896        1.94627537        0.82178232
 C           -0.53013224        2.79925662       -0.66220195
 C           -1.85236798        3.02926609       -0.31351480
 C           -0.18489040        2.46789194       -1.98456800
 C            2.14664908        2.45434406       -1.32485548
 C            3.31040061        1.57504470       -1.31173336
 C            1.17321271        2.30206197       -2.31453615
 C            3.44439229       -0.77261133       -1.96411594
 C            3.46190141        0.63812117       -2.31770826
 C            1.43143553       -2.13619018       -2.24867665
 C            2.47346452       -1.41710110       -2.83257983
 C           -0.89197695       -1.93769846       -1.55967811
 C            0.10003957       -1.80161984       -2.53881454
 C           -3.15468556       -1.57411203       -0.80156700
 C           -4.11011224       -0.50474209       -0.54711068
 C           -2.16842628       -1.39587281       -1.77263509
 C           -3.90593049        1.93741956       -0.59871916
 C           -2.88562692        2.72095773       -1.27234417
 C           -4.02531106        0.66275777       -1.29145996
 C           -1.18144059        2.06243787       -2.89314221
 C           -2.35050415       -0.40874633       -2.74600526
 C           -2.50151750        2.01150660       -2.46839822
 C           -3.13380531        0.70218023       -2.43465579
 C           -0.20083202       -1.09201611       -3.69829993
 C           -0.84945049        1.13394507       -3.86699084
 C           -1.35555272       -0.21798495       -3.69750899
 C            1.53489689        1.68402797       -3.51318535
 C            2.68570005        0.79870741       -3.53333910
 C            2.21152375       -0.51698585       -3.93397201
 C            0.51718281        1.04343590       -4.31359718
 C            0.84941160       -0.37001408       -4.39306388
