   70
C70 / DATE: 7/ 1/2024 / Origin: Program Fullerene / C70 from database
 C            1.42798952        0.06726413        5.16438950
 C            0.58237872       -1.08159806        5.41849750
 C            1.14180790       -2.19976045        4.68562080
 C            2.43701856       -0.32358892        4.19077997
 C            2.19290446       -1.69658618        3.81613056
 C            2.43630721        0.67204450        3.14634599
 C            0.60405651        1.08072963        4.53563185
 C            1.36390967        1.60895532        3.42582132
 C           -0.72721971       -0.81052338        4.84454131
 C           -0.68784148        0.49846770        4.23231410
 C            0.03394142       -2.88798326        4.06304030
 C           -1.07669257       -1.93894088        4.01235967
 C            0.30862422       -3.61067206        2.91582222
 C            2.14994165       -2.03953728        2.46299338
 C            1.45958112       -3.19975698        2.11516990
 C            2.59416077        0.27365329        1.82222969
 C            2.41623165       -1.07309474        1.47412541
 C            2.32802140        1.23488841        0.85193046
 C            0.66695447        2.07583144        2.32529190
 C            1.39334229        2.22941374        1.15740451
 C           -1.17469252        0.65954946        2.93711323
 C           -0.67290655        1.71638352        2.17904699
 C           -1.71128405       -1.71322757        2.78935407
 C           -1.79032349       -0.40854983        2.26986675
 C           -0.78555081       -3.82072803        1.99455377
 C           -1.80776023       -2.79383585        1.92113356
 C            1.14297820       -3.45497527        0.72502095
 C           -0.21325022       -3.95999951        0.67261533
 C            2.24356065       -1.39593503        0.11737539
 C            1.51787504       -2.53747786       -0.24422741
 C            2.56259273        0.91993648       -0.48149255
 C            2.49390895       -0.42310819       -0.86336670
 C            2.37547575        1.93205437       -1.42178485
 C            0.77189833        2.90452926        0.11749884
 C            1.46466122        3.00624930       -1.08089541
 C           -1.27733099        2.00956062        0.96177986
 C           -0.62366927        2.90117947        0.11130614
 C           -2.23909955       -0.20124564        0.95503992
 C           -2.16475232        1.08474497        0.40467344
 C           -2.08258069       -2.56286166        0.52032620
 C           -1.12460622       -3.32881541       -0.25830557
 C           -2.38686020       -1.28227729        0.08389150
 C            0.79296036       -2.52413433       -1.43468792
 C           -0.58916978       -2.71095384       -1.37849796
 C            2.26613476       -0.75535161       -2.20159470
 C            1.31556447       -1.80930696       -2.50000852
 C            2.17934815        1.61257005       -2.82322143
 C            2.09761550        0.28477840       -3.20569633
 C            0.76808040        3.41928737       -2.28364393
 C            1.24930078        2.58572731       -3.37919896
 C           -1.31378131        3.35884518       -1.00185770
 C           -0.57811590        3.74843742       -2.19198607
 C           -2.61258010        1.29960342       -0.90676539
 C           -2.45520420        2.58262552       -1.43667722
 C           -2.29665359       -1.03807248       -1.28157436
 C           -1.39435987       -1.79189972       -2.03889611
 C           -2.71168707        0.19524547       -1.76353112
 C            0.41126029       -1.30802908       -3.52324954
 C            1.04493112       -0.14098317       -4.11726682
 C           -0.95944891       -1.29861546       -3.26445097
 C            0.38494355        2.21153808       -4.40416008
 C            0.24988683        0.80481240       -4.75413673
 C           -1.45007555        3.53442398       -3.33267158
 C           -2.62947503        2.82324276       -2.85686954
 C           -0.93314722        2.82161996       -4.48552601
 C           -2.73086460        0.36327353       -3.14718003
 C           -1.77287268       -0.39125295       -3.93415183
 C           -1.16662452        0.52312645       -4.88349784
 C           -2.84034284        1.68834804       -3.72173812
 C           -1.88932456        1.78073799       -4.81822699
