   70
C70 / DATE: 7/ 1/2024 / Origin: Program Fullerene / C70 from database
 C            1.70542664       -0.03051383        4.67513768
 C            0.86992357       -1.20798171        4.53192855
 C            1.35621084       -1.97404845        3.39415579
 C            2.66598321       -0.04148099        3.58985648
 C            2.51167823       -1.28426271        2.85349054
 C            2.52847275        1.20041299        2.84947928
 C            0.85760200        1.13392594        4.49701844
 C            1.33989616        1.87350543        3.33977542
 C           -0.51494856       -0.77370239        4.53505650
 C           -0.52191813        0.68435722        4.50829763
 C           -1.42093431       -1.48036465        3.75419338
 C            0.43429310       -2.52437053        2.51170939
 C           -0.91974419       -2.50439368        2.85161991
 C            0.80409047       -2.73531474        1.18081035
 C            2.67667107       -1.23157509        1.47531653
 C            1.91674288       -2.06952283        0.65287299
 C            2.74003809        1.15212819        1.48006498
 C            3.17436958       -0.05065608        0.93448841
 C            2.03728585        2.02845001        0.65589469
 C            0.41673138        2.36596652        2.41932584
 C            0.79119572        2.50919380        1.07986037
 C           -1.43047241        1.35062086        3.69783331
 C           -0.93643500        2.33395141        2.74334206
 C           -2.48482613       -0.77505496        3.05495577
 C           -2.50091469        0.61041033        3.04791225
 C           -1.92040449       -2.68289571        1.81690713
 C           -2.75781334       -1.49420808        1.81936230
 C           -0.10776192       -3.33867083        0.32178571
 C           -1.52942092       -3.21396873        0.60279549
 C            0.06261103       -3.20734406       -1.11453553
 C            2.10701683       -1.99274148       -0.73450699
 C            1.10339309       -2.42949052       -1.61088986
 C            3.55236183       -0.05663758       -0.39431114
 C            3.13731547       -1.18237944       -1.20662314
 C            2.38043389        2.06892710       -0.69788122
 C            3.30148302        1.13804854       -1.17766714
 C            1.57496208        2.76949955       -1.59214080
 C           -0.15259117        2.93510822        0.13800904
 C            0.26403609        3.21582997       -1.16018461
 C           -1.91966465        2.43592782        1.68566464
 C           -2.82730750        1.30677735        1.81779425
 C           -1.51865715        2.80570272        0.40936822
 C           -2.95756916       -0.79006849        0.62859133
 C           -3.16903173        0.59382326        0.67047701
 C           -2.14822570       -2.70553774       -0.60249616
 C           -1.26527637       -3.07084970       -1.68998130
 C           -2.72842260       -1.43696345       -0.59513160
 C           -1.40235486       -2.40738535       -2.89355843
 C            1.00706240       -1.91395184       -2.91321336
 C           -0.20581790       -1.98629316       -3.59631238
 C            3.12448889       -0.72854818       -2.58061522
 C            3.25641693        0.72231760       -2.56702719
 C            1.98737244       -1.05807604       -3.40656365
 C            1.46831707        2.33848297       -2.98178829
 C            2.23437662        1.27234832       -3.43541975
 C            1.58869822        0.15519109       -4.10534105
 C           -0.65903081        3.03449739       -2.27033498
 C            0.07413745        2.44538865       -3.37957179
 C           -2.39403904        2.50663925       -0.63026903
 C           -3.21666850        1.31229651       -0.51757460
 C           -1.95860439        2.62741241       -2.00830525
 C           -2.84431944       -0.73974716       -1.80125840
 C           -2.35095629       -1.30988606       -2.97586915
 C           -3.15416635        0.61523055       -1.78415650
 C           -2.53574540        1.51622324       -2.74836981
 C           -0.58836167       -0.88742101       -4.46740165
 C            0.27510878        0.27810475       -4.54102037
 C           -0.51037629        1.43872396       -4.14427960
 C           -1.91256333       -0.44599062       -4.06042489
 C           -1.86085928        0.98687394       -3.84012685
