   70
C70 / DATE: 7/ 1/2024 / Origin: Program Fullerene / C70 from database
 C            1.24672910       -0.05052984        4.16785015
 C            2.55392822       -0.37808206        3.64894099
 C            2.57569920       -1.80333177        3.37667055
 C            0.41611512       -1.24342942        4.08130983
 C            1.21545560       -2.30188312        3.50371487
 C           -0.81798983       -0.87144505        3.42395970
 C            0.51297366        1.03375051        3.54852002
 C           -0.84106329        0.57726859        3.33167280
 C            1.10156184        1.80120845        2.55126133
 C            3.01351403        0.30406287        2.45595192
 C            2.30619308        1.39192285        1.95583701
 C            3.26975836       -2.00687226        2.11522835
 C            3.46786180       -0.69731763        1.51035940
 C            2.85698035       -3.05762450        1.31212409
 C            0.69703845       -3.06404850        2.46136986
 C            1.61881432       -3.73255020        1.65604940
 C           -1.26008375       -1.61253555        2.33279571
 C           -0.58915754       -2.78585324        1.96460626
 C           -2.16934718       -1.01549777        1.45104947
 C           -1.56564401        1.15181605        2.29775646
 C           -2.45954656        0.34672748        1.60245836
 C            0.27067762        2.65812754        1.83263200
 C           -1.08282335        2.31187815        1.67994213
 C            0.87828952        3.49936668        0.91138814
 C            2.56930165        1.78307846        0.64375036
 C            2.04309327        2.99683385        0.21360079
 C            3.18725215       -0.49738851        0.15828433
 C            2.94716310        0.80573141       -0.28655074
 C            2.82456264       -2.86821557       -0.12501375
 C            2.78323722       -1.57601198       -0.63851208
 C            1.17584768       -4.42883527        0.46792591
 C            1.90715139       -3.86123937       -0.65754432
 C           -1.10947802       -3.54939542        0.92295868
 C           -0.23075741       -4.40161326        0.14188705
 C           -2.56312811       -1.67852304        0.28228916
 C           -2.03127051       -2.92892397       -0.00894655
 C           -3.05787738       -0.92194444       -0.78061000
 C           -3.34346855        0.96167607        0.72739793
 C           -3.73656548        0.25016574       -0.47031243
 C           -1.87853971        2.93138684        0.70405146
 C           -3.09277554        2.34275546        0.35216170
 C            0.06785748        4.23070345       -0.03349724
 C           -1.33376585        3.89390789       -0.14527368
 C            1.85349268        3.25082204       -1.20341425
 C            0.66837640        4.07325787       -1.35054358
 C            2.71163833        1.00532193       -1.64377057
 C            2.07619506        2.22561901       -2.10546611
 C            2.06649685       -1.33600479       -1.81349998
 C            2.18136125       -0.09631193       -2.42228680
 C            0.93358413       -3.44758607       -1.65144841
 C           -0.34519951       -3.98772902       -1.24536730
 C           -1.50182793       -3.12693057       -1.34383343
 C            0.97508840       -2.14332545       -2.13416165
 C           -2.47966683       -1.09674531       -2.04729189
 C           -1.44476408       -2.01292019       -2.16709944
 C           -0.19875043       -1.55101767       -2.61630998
 C           -2.54354099       -0.09161246       -3.00114984
 C           -4.01508439        1.23064418       -1.50143668
 C           -3.61343518        2.53235101       -0.99302845
 C           -3.40888226        1.05196340       -2.79977432
 C           -1.64254825        3.85285992       -1.56622914
 C           -0.38033032        3.64841839       -2.26122441
 C           -2.76945976        3.16540953       -1.99134430
 C           -2.64182173        2.24717424       -3.10852862
 C            1.03357986        1.85506250       -3.05361930
 C            1.07204317        0.40860202       -3.21304075
 C           -0.12140000       -0.30782020       -3.25905498
 C           -1.29688357        0.37400111       -3.57420460
 C           -0.19853621        2.50770294       -3.04540515
 C           -1.31349950        1.82951699       -3.52896144
