   70
C70 / DATE: 7/ 1/2024 / Origin: Program Fullerene / C70 from database
 C            1.12182041        0.07762639        4.42954499
 C            2.39080608       -0.17415025        3.78491469
 C            2.41006577       -1.57680759        3.41758941
 C            0.29588183       -1.11227630        4.26820134
 C            1.03979485       -2.05424839        3.46794618
 C           -1.00020684       -0.68306704        3.79728518
 C            0.33396196        1.20448257        3.97884676
 C           -1.04708664        0.76364009        3.92101669
 C            0.80530098        2.02081770        2.95499176
 C            2.72621456        0.58588280        2.59586911
 C            1.84883174        1.56826271        2.13201473
 C            3.12094396       -1.69125953        2.15975272
 C            3.31187010       -0.34388300        1.64247568
 C            2.70380003       -2.67255982        1.27874598
 C            0.47777995       -2.56778410        2.30117471
 C            1.34725263       -3.19002825        1.41363036
 C           -1.54934733       -1.26765882        2.66349179
 C           -0.74537151       -2.06083250        1.82587331
 C           -2.68653351       -0.66100809        2.15130453
 C           -1.92975347        1.47607874        3.11406404
 C           -2.89750915        0.75879561        2.40540227
 C           -0.08792269        2.96159126        2.45937936
 C           -1.51241921        2.72251439        2.64607142
 C            0.09129924        3.47679931        1.11839286
 C            1.85602425        1.88402504        0.76776683
 C            0.95303282        2.81793145        0.25669395
 C            3.13300417       -0.10095293        0.28322246
 C            2.66071677        1.14826276       -0.10868020
 C            2.92652251       -2.46714747       -0.13616563
 C            3.07993990       -1.17074341       -0.62035191
 C            0.88780905       -3.54723415        0.09058736
 C            2.01432238       -3.36159917       -0.81357424
 C           -1.14109048       -2.31051798        0.49582745
 C           -0.38187838       -3.16003945       -0.31901442
 C           -3.10603541       -0.94156104        0.79716413
 C           -2.28632123       -1.69644739       -0.03003291
 C           -3.53949889        1.33040897        1.22908147
 C           -3.74209056        0.25543316        0.27069674
 C           -2.21362742        3.36204104        1.54838453
 C           -1.21298518        3.87360877        0.62422959
 C           -3.17536005        2.59512193        0.78316031
 C           -1.59495262        3.47101275       -0.71687243
 C           -2.88540083        2.80937527       -0.62610647
 C            0.69586190        2.84641224       -1.11213648
 C           -0.62534585        2.94486162       -1.56732708
 C            2.67755799        1.47149587       -1.45965100
 C            1.68654103        2.39977827       -1.97322418
 C            2.81949462       -0.91838594       -1.97130989
 C            2.82721777        0.39815237       -2.42526958
 C            1.75795062       -3.14481813       -2.15552802
 C            2.24513860       -1.91695629       -2.76791914
 C           -0.68638857       -3.26625856       -1.67316867
 C            0.40453586       -3.35932399       -2.62998030
 C           -2.47504118       -1.62080879       -1.41178284
 C           -1.69576893       -2.40250651       -2.24847540
 C           -3.65281409        0.51744152       -1.08901838
 C           -3.19159026        1.81952690       -1.54938967
 C           -3.06943445       -0.48837839       -1.95943369
 C           -1.03764757        2.20318382       -2.67982845
 C           -2.28796574        1.59557928       -2.66690339
 C           -2.39166004        0.19763969       -3.04641094
 C            1.31216667        1.96432007       -3.30185499
 C            2.05201280        0.75106991       -3.60133809
 C           -0.08883381        1.71767912       -3.57117502
 C            1.31298189       -1.55836638       -3.83041315
 C            0.14967870       -2.41071833       -3.70017147
 C           -1.13975752       -1.79677623       -3.45100159
 C           -1.30542643       -0.42725229       -3.65540558
 C            1.12263167       -0.22112270       -4.14135420
 C           -0.21770021        0.35262587       -4.06452527
