   70
C70 / DATE: 7/ 1/2024 / Origin: Program Fullerene / C70 from database
 C            1.37940848       -0.05963510        4.53206448
 C            2.64351702       -0.20936264        3.83832363
 C            2.61808608       -1.48342367        3.14089408
 C            0.53918210       -1.19103971        4.17742077
 C            1.29890926       -2.06010477        3.29370432
 C           -0.73611133       -0.67710195        3.70708902
 C            0.61112413        1.15094135        4.31664849
 C           -0.71605074        0.76545426        3.84994822
 C            1.23547439        2.24901465        3.73821326
 C            3.04853322        0.81359269        2.88679967
 C            2.41385666        2.04753268        2.89981143
 C            3.10846626       -1.26527156        1.79752445
 C            3.29522867        0.16172496        1.61024570
 C            2.53328126       -1.97125797        0.75445764
 C            0.66488607       -2.56348618        2.16262071
 C            1.40483022       -2.76454078        0.99237050
 C           -1.28483247       -1.23407421        2.56012596
 C           -0.71178672       -2.39832299        2.05527958
 C           -2.07201974       -0.44605884        1.71636778
 C           -1.36591142        1.54980966        2.89996970
 C           -2.15762646        0.93590392        1.92266288
 C            0.40495506        3.23808409        3.08210299
 C           -0.94979185        2.86890384        2.71600845
 C            2.16439312        2.71357169        1.63514497
 C            1.07993900        3.64277767        1.85919408
 C            2.84001091        0.73964652        0.42092966
 C            2.18521250        1.97398639        0.45437067
 C            2.71950082       -1.47038576       -0.52167699
 C            2.68835272       -0.08129319       -0.69981706
 C            2.41383258       -2.31307935       -1.57451396
 C            0.77476084       -3.38122920       -0.09829434
 C            1.36609384       -3.29444675       -1.36453819
 C           -1.37235748       -3.07040405        1.04307179
 C           -0.57718325       -3.70993716        0.01065502
 C           -2.62238588       -1.02613694        0.56751014
 C           -2.47440458       -2.39754585        0.38292963
 C           -3.03234541       -0.21862589       -0.50024522
 C           -2.79623205        1.73073758        0.97381685
 C           -3.25029218        1.13540792       -0.27359775
 C           -1.22242684        3.53051577        1.45570719
 C            0.06743685        3.77420871        0.83402230
 C           -2.24156632        3.03788178        0.65815592
 C            1.37573552        2.35666839       -0.62160641
 C            0.29752784        3.23349398       -0.42475645
 C            2.17607890        0.46256998       -1.88130581
 C            1.49348199        1.68041844       -1.83787896
 C            2.26557911       -1.75927651       -2.90082743
 C            2.11001003       -0.32570504       -3.02871822
 C            0.54580937       -3.32598676       -2.57027012
 C            1.11319586       -2.39200375       -3.52270541
 C           -1.40520853       -3.77933078       -1.18018424
 C           -2.57706978       -2.94792980       -0.95063994
 C           -0.83220906       -3.40698385       -2.45766222
 C           -2.98894288       -0.69655453       -1.81875820
 C           -2.70107437       -2.03363869       -2.06272529
 C           -1.66465008       -2.35701775       -3.03161218
 C           -2.79524739        0.19533309       -2.86979884
 C           -2.97810195        2.09079309       -1.33457445
 C           -2.06676908        3.07738347       -0.78294254
 C           -0.77779498        3.18993399       -1.30728389
 C           -2.75349507        1.62567619       -2.61969687
 C            0.67099606        2.05498336       -2.90147247
 C           -0.54587354        2.79136929       -2.61561145
 C           -1.62671470        2.16654659       -3.35777747
 C            1.04489366       -0.10283453       -3.98681464
 C            0.27366701       -1.33771625       -4.06318300
 C           -1.09495489       -1.32244796       -3.77828035
 C           -1.79220839       -0.11941455       -3.87664245
 C            0.37662720        1.10826564       -3.96674387
 C           -1.05923520        1.10047362       -4.16300524
