   70
C70 / DATE: 7/ 1/2024 / Origin: Program Fullerene / C70 from database
 C            1.51731696        0.03164068        4.61880339
 C            0.70246283       -1.16159440        4.49648531
 C            1.20145136       -1.94169375        3.37735287
 C            2.52352391       -0.01326932        3.57443159
 C            2.35220668       -1.24523213        2.83022070
 C            2.45561624        1.23389360        2.83837606
 C            0.66042919        1.17380581        4.35099076
 C            1.25961115        1.92851329        3.27593337
 C           -0.68275047       -0.74152919        4.46877572
 C           -0.68963744        0.68717568        4.17179869
 C           -1.58621718       -1.55336876        3.80369577
 C            0.28235253       -2.51347209        2.50077824
 C           -1.06982667       -2.53419529        2.85442525
 C            0.63762198       -2.69971045        1.16194655
 C            2.50340401       -1.19430584        1.45233554
 C            1.79910145       -2.09849561        0.65845988
 C            2.71588089        1.20594702        1.47105567
 C            2.99372308       -0.02437454        0.87248933
 C            2.19396974        2.23254116        0.67773031
 C            0.44766104        2.46794594        2.29224882
 C            1.08097151        2.94040113        1.15267752
 C           -1.44944041        1.16058068        3.09889040
 C           -0.89354151        2.06703148        2.18255053
 C           -2.73157773       -0.92001924        3.18233623
 C           -2.59903619        0.45700502        2.74367781
 C           -2.07391880       -2.71315899        1.81863550
 C           -3.10815424       -1.71903689        2.03266536
 C           -0.31240781       -3.20734002        0.27771217
 C           -1.66003646       -2.94504990        0.51502899
 C            0.08255097       -3.54188402       -1.01096903
 C            2.08752486       -2.16428312       -0.70860371
 C            1.29120765       -2.94218341       -1.54400001
 C            3.31762342       -0.04650689       -0.47443241
 C            2.87579527       -1.16957918       -1.28442028
 C            2.52830699        2.27112209       -0.68126666
 C            3.14632737        1.16336965       -1.25934633
 C            1.97700181        3.24789782       -1.50718420
 C            0.31323646        3.68676711        0.27732430
 C            0.84040886        4.00452633       -1.02966706
 C           -1.58434153        2.34453177        0.99389090
 C           -1.07602680        3.30506235        0.12607084
 C           -3.09244631        0.53265964        1.37795741
 C           -3.41706407       -0.81435021        0.94167563
 C           -2.46826220        1.39608005        0.48725511
 C           -2.43447353       -2.42918827       -0.52313853
 C           -3.05720515       -1.19207196       -0.34345509
 C           -0.91642339       -3.54045737       -2.06709928
 C           -2.17823690       -2.86970839       -1.81516711
 C            0.99374738       -2.45709544       -2.88466921
 C           -0.31972647       -2.94608735       -3.25148960
 C            2.52271184       -0.65905879       -2.60064727
 C            2.80110857        0.76424938       -2.61646815
 C            1.39376231       -1.16773232       -3.23880445
 C            1.72281522        2.93567132       -2.90300846
 C            2.00959108        1.59549544       -3.38768713
 C           -0.23960545        3.83443610       -1.98669235
 C           -1.32640145        3.16161193       -1.29747043
 C            0.31993766        3.21709422       -3.16719474
 C           -2.42536950        1.06836721       -0.87370256
 C           -2.85589459       -0.19318818       -1.29241615
 C           -1.80778430        1.94268931       -1.77703428
 C           -2.42262647       -1.96080787       -2.91986220
 C           -1.27005620       -2.01256160       -3.80617552
 C           -2.69375608       -0.56486992       -2.61874488
 C            0.50426043       -0.29938392       -3.89869625
 C            0.78908248        1.06401689       -3.96831280
 C           -0.28130354        1.99513024       -3.65242491
 C           -1.43624780        1.49452505       -3.05464486
 C           -0.83900142       -0.65106106       -4.03624271
 C           -1.84550716        0.23612030       -3.47554392
