   70
C70 / DATE: 7/ 1/2024 / Origin: Program Fullerene / C70 from database
 C            1.27921318        0.05151375        4.33706667
 C            2.57077844       -0.28968581        3.79422095
 C            2.53320502       -1.69560111        3.42209884
 C            0.43780008       -1.13486409        4.25710439
 C            1.14079838       -2.10821097        3.45241912
 C           -0.87318312       -0.69721901        3.82649830
 C            0.53385235        1.13213750        3.72639264
 C           -0.85919999        0.75296232        3.84578854
 C            0.97375707        1.70378830        2.52801498
 C            3.04976587        0.43831563        2.63934756
 C            2.22392246        1.36387335        1.99175461
 C            3.27836049       -1.83697238        2.18210497
 C            3.79151602       -0.51844457        1.84107416
 C            2.75338514       -2.64258986        1.17892242
 C            0.55106625       -2.57628081        2.28179285
 C            1.37043297       -3.08470690        1.27574545
 C           -1.49470658       -1.33347864        2.75783285
 C           -0.78330180       -2.26793983        1.98717458
 C           -2.63251547       -0.72926361        2.21952490
 C           -1.78278672        1.42260099        3.06464681
 C           -2.79161808        0.65001910        2.35554311
 C            0.04718703        2.39315608        1.74106785
 C           -1.29434572        2.41830318        2.13067028
 C            0.39909568        2.83291457        0.46370462
 C            2.54217213        1.73768315        0.68310142
 C            1.65487485        2.51993556       -0.06013580
 C            4.03708891       -0.20264476        0.51573835
 C            3.59117297        1.08880502        0.03000658
 C            3.01723758       -2.31873521       -0.21471637
 C            3.72892740       -1.17118784       -0.52862171
 C            0.85139589       -3.20853486       -0.07336019
 C            1.83059503       -2.64984437       -0.98725270
 C           -1.33092527       -2.71524956        0.78304818
 C           -0.48682971       -2.94789582       -0.30410723
 C           -3.32157683       -1.37687690        1.20246494
 C           -2.68452704       -2.50304719        0.54969060
 C           -3.94267838       -0.57570539        0.16058774
 C           -3.20240847        1.43359722        1.19862169
 C           -2.33100596        2.59469834        1.13005285
 C           -3.57755119        0.76497507        0.03532113
 C           -0.58030476        3.38551543       -0.36349168
 C           -1.97905369        3.10179288       -0.10403968
 C           -0.40538746        3.36525722       -1.80217931
 C            1.93667657        2.79097256       -1.40352359
 C            0.85916668        3.14058147       -2.31602921
 C            3.57407343        0.98925871       -1.41307892
 C            3.36515761       -0.41886002       -1.71725411
 C            2.85958552        1.93240856       -2.12888810
 C            1.39838216       -1.79806896       -2.00514395
 C            2.25205976       -0.79206570       -2.47225791
 C           -0.86892630       -2.52220227       -1.57292131
 C            0.04040006       -1.79695782       -2.35914353
 C           -3.18244192       -2.55778077       -0.81512645
 C           -4.06548892       -1.41804627       -1.00986463
 C           -2.21918627       -2.55310670       -1.89816965
 C           -3.77179756       -0.85008628       -2.30401262
 C           -2.71932551       -1.65186453       -2.90917839
 C           -3.24819802        1.30425949       -1.22014477
 C           -2.53047800        2.49501338       -1.30238786
 C           -1.55545553        2.66851003       -2.37229265
 C           -3.35487164        0.53601401       -2.37730379
 C           -0.41970656       -0.95448288       -3.38270935
 C           -1.78485690       -0.74545235       -3.53552032
 C           -1.37534295        1.65302220       -3.31747049
 C           -2.29371619        0.60634282       -3.36709230
 C            0.98902825        2.30560953       -3.49206080
 C            2.18248675        1.49457375       -3.33393889
 C            1.79607072        0.09714944       -3.43754792
 C           -0.10480499        1.42081525       -3.84225463
 C            0.40781478        0.05757818       -3.84592410
