   70
C70 / DATE: 7/ 1/2024 / Origin: Program Fullerene / C70 from database
 C            1.54612362       -0.00000000        4.49319099
 C            0.73981038       -1.17031645        4.20386458
 C            1.50211729       -2.01782379        3.31301891
 C            2.66788743       -0.00000000        3.56834444
 C            2.62952038       -1.23444132        2.82553098
 C            2.62952038        1.23444132        2.82553098
 C            0.73981038        1.17031645        4.20386458
 C            1.50211729        2.01782379        3.31301891
 C           -0.56229966       -0.72617890        3.75356802
 C           -0.56229966        0.72617890        3.75356802
 C           -1.13695504       -1.39117875        2.67848623
 C            0.81293190       -2.79290477        2.38846724
 C           -0.56315173       -2.58447708        2.23091092
 C            1.54481672       -3.25292870        1.29992859
 C            2.87525029       -1.21945816        1.45426475
 C            2.60077403       -2.40054022        0.78022102
 C            2.87525029        1.21945816        1.45426475
 C            2.84667249        0.00000000        0.74938295
 C            2.60077403        2.40054022        0.78022102
 C            0.81293190        2.79290477        2.38846724
 C            1.54481672        3.25292870        1.29992859
 C           -1.13695504        1.39117875        2.67848623
 C           -0.56315173        2.58447708        2.23091092
 C           -2.01624188       -0.70106064        1.84223257
 C           -2.01624188        0.70106064        1.84223257
 C           -2.73481367       -1.41217568        0.87874899
 C           -1.25554274       -3.33233898        1.28486254
 C           -2.43685682       -2.75624696        0.66489461
 C            0.85844754       -3.86331204        0.17749415
 C           -0.51324470       -4.03853762        0.25105708
 C            2.50522121       -2.40363898       -0.65860155
 C            1.45536068       -3.33827286       -1.04398772
 C            2.70519914       -0.00000000       -0.65674615
 C            2.63453198       -1.21699387       -1.35861418
 C            2.50522121        2.40363898       -0.65860155
 C            2.63453198        1.21699387       -1.35861418
 C            0.85844754        3.86331204        0.17749415
 C            1.45536068        3.33827286       -1.04398772
 C           -1.25554274        3.33233898        1.28486254
 C           -0.51324470        4.03853762        0.25105708
 C           -2.73481367        1.41217568        0.87874899
 C           -2.43685682        2.75624696        0.66489461
 C           -3.45645398       -0.72473086       -0.09226426
 C           -3.45645398        0.72473086       -0.09226426
 C           -3.38647711       -1.15845598       -1.48189694
 C           -2.52937219       -3.29090968       -0.68223060
 C           -1.28626750       -3.98322236       -0.97220669
 C           -2.79913352       -2.37560949       -1.77528982
 C            0.66274793       -3.05232969       -2.15932760
 C           -0.69655056       -3.36833275       -2.14748183
 C           -1.65344238       -2.40260857       -2.67050577
 C            2.22589459       -1.23723058       -2.68653093
 C            1.10882662       -2.08931776       -3.06101622
 C            2.22589459        1.23723058       -2.68653093
 C            2.09342895        0.00000000       -3.41448157
 C            0.66274793        3.05232969       -2.15932760
 C            1.10882662        2.08931776       -3.06101622
 C           -1.28626750        3.98322236       -0.97220669
 C           -2.52937219        3.29090968       -0.68223060
 C           -0.69655056        3.36833275       -2.14748183
 C           -3.38647711        1.15845598       -1.48189694
 C           -3.01522084        0.00000000       -2.26771125
 C           -2.79913352        2.37560949       -1.77528982
 C           -1.65344238        2.40260857       -2.67050577
 C           -1.17280910       -1.22369099       -3.24046928
 C            0.13070541       -1.24145119       -3.72243180
 C            0.78775827       -0.00000000       -4.05832276
 C            0.13070541        1.24145119       -3.72243180
 C           -1.80653781       -0.00000000       -2.96304864
 C           -1.17280910        1.22369099       -3.24046928
