   70
C70 / DATE: 7/ 1/2024 / Origin: Program Fullerene / C70 from database
 C            1.03453502        0.02426150        4.55583101
 C            2.28757374       -0.32635609        3.92637672
 C            2.24397049       -1.74961539        3.64301475
 C            0.20958529       -1.17650418        4.59184251
 C            0.85691921       -2.15932699        3.74992165
 C           -1.14371180       -0.78406132        4.27855934
 C            0.22981130        1.07272021        3.96357617
 C           -1.14662948        0.66077521        4.11904980
 C            0.60707643        1.64777372        2.75014754
 C            2.65505955        0.33876605        2.69373503
 C            1.81347619        1.29493192        2.13299504
 C            2.92137748       -1.96724237        2.38026998
 C            3.23956155       -0.66075851        1.81991726
 C            2.40680506       -2.93273856        1.53143042
 C            0.21672839       -2.64469230        2.60610068
 C            1.00185998       -3.30429150        1.66605263
 C           -1.77097743       -1.33812092        3.09532475
 C           -1.03136253       -2.13222002        2.21754330
 C           -2.06701473        0.96926849        3.04602447
 C           -2.59986054       -0.28233747        2.54615763
 C           -0.36499483        2.30397029        1.98989437
 C           -1.71024780        1.92225001        2.10371181
 C            0.03446300        3.01346895        0.85596877
 C            1.99776332        1.62824554        0.79503348
 C            1.25235028        2.67110098        0.25487265
 C            3.14582714       -0.47508020        0.44174701
 C            2.70466520        0.75881469       -0.04951993
 C            2.67752140       -2.81374016        0.11508354
 C            3.11937890       -1.59399046       -0.39422072
 C            0.48153898       -3.54440541        0.33294415
 C            1.61522726       -3.52462724       -0.57352989
 C           -1.44291383       -2.20248144        0.87892440
 C           -0.70724942       -2.94078621       -0.05756771
 C           -2.93692628       -0.33789292        1.20178591
 C           -2.55372942       -1.45918073        0.46733843
 C           -2.52218409        2.02309686        0.97865758
 C           -3.16402476        0.86448186        0.52643045
 C           -0.95698474        3.66206827        0.11996063
 C           -2.28218825        3.07767100        0.10575897
 C           -0.67904873        4.15681293       -1.21216663
 C            1.57139396        3.11256863       -1.02372829
 C            0.60903717        3.87199863       -1.79810080
 C            2.76025724        1.00748504       -1.42607761
 C            2.20590738        2.18103140       -1.93217192
 C            3.08171874       -1.40630109       -1.77014487
 C            2.86647270       -0.07251299       -2.29906040
 C            1.39605674       -3.24582648       -1.91249362
 C            2.30512003       -2.33098456       -2.58009142
 C           -0.98957221       -2.82808108       -1.42403787
 C            0.04972647       -2.91782632       -2.35100328
 C           -3.01897103       -1.59187699       -0.83395162
 C           -2.15315262       -2.18671036       -1.83030556
 C           -3.68439334        0.81384433       -0.76277323
 C           -3.68742837       -0.46110094       -1.45677388
 C           -2.72192773        2.99899730       -1.27856336
 C           -1.69613483        3.61734035       -2.10033419
 C           -3.30522613        1.82683686       -1.72995038
 C            0.37952855        3.14622663       -3.03837192
 C            1.34322318        2.07778128       -3.09864642
 C           -1.02113221        2.80377382       -3.09791866
 C            1.91112477       -0.17272044       -3.39307752
 C            1.53889475       -1.55533010       -3.54063517
 C            0.14843251       -1.89937460       -3.38704698
 C            0.93854982        0.81197605       -3.49565877
 C           -2.07207109       -1.25849498       -2.94752281
 C           -3.08633598       -0.25202157       -2.76551875
 C           -2.69910577        1.13487838       -2.85716006
 C           -1.40198233        1.46990060       -3.24364242
 C           -0.81477152       -0.89697403       -3.41594770
 C           -0.42626536        0.46146916       -3.40426847
