   70
C70 / DATE: 7/ 1/2024 / Origin: Program Fullerene / C70 from database
 C            1.29411408        0.10849075        4.39231333
 C            2.53576318       -0.24212254        3.74604307
 C            2.48304970       -1.65907685        3.42205547
 C            0.45425189       -1.07875518        4.43150783
 C            1.13816646       -2.13166820        3.70210944
 C           -0.88531027       -0.69751201        4.01874755
 C            0.50898604        1.18188437        3.82543843
 C           -0.85798950        0.71296595        3.67141202
 C            1.03928944        1.99277647        2.82518743
 C            2.91546746        0.47353420        2.54240272
 C            2.16808827        1.57010873        2.10158965
 C            3.01792331       -1.83030903        2.08477576
 C            3.33357450       -0.51133452        1.56332427
 C            2.42216634       -2.75653396        1.24511887
 C            0.44635919       -2.83680555        2.71882568
 C            1.14621011       -3.34606016        1.62652703
 C           -1.60792612       -1.56738440        3.22149791
 C           -0.94211463       -2.73353112        2.65677270
 C           -2.46573983       -1.01824508        2.18838620
 C           -1.59809466        1.19070019        2.58854685
 C           -2.26792178        0.28816662        1.75393439
 C            0.14312430        2.86169948        2.21814732
 C           -1.24421658        2.43712078        2.09096187
 C            0.51001257        3.52848686        0.98959960
 C            2.33401625        1.98301661        0.77079764
 C            1.64057088        3.10606492        0.30294724
 C            3.11242500       -0.22068770        0.22395317
 C            2.96402593        1.11232421       -0.13132136
 C            2.36671119       -2.48130541       -0.17878151
 C            2.62619284       -1.20214075       -0.64713196
 C            0.44049306       -3.68900880        0.40118185
 C            1.23460106       -3.20316591       -0.72007160
 C           -1.64641199       -3.08109136        1.43252416
 C           -2.66911304       -2.06583078        1.21118630
 C           -0.94825772       -3.59225444        0.33854473
 C           -2.98983796       -1.72643120       -0.09266990
 C           -2.50555438        0.60245935        0.40712298
 C           -3.03318609       -0.37251519       -0.45177131
 C           -1.71165580        2.84721741        0.78407664
 C           -0.72184259        3.76767290        0.25495863
 C           -2.28793886        1.90738278       -0.06217059
 C           -0.65216496        3.95610356       -1.11446360
 C            1.81226983        3.53807107       -1.01024500
 C            0.66025710        4.05114918       -1.73347333
 C            2.99408880        1.41010546       -1.48398570
 C            2.56620937        2.71466705       -1.93039374
 C            2.09311481       -0.81873932       -1.87974730
 C            2.46704460        0.41730193       -2.40205557
 C            0.57201397       -2.70885142       -1.83809110
 C            0.93977235       -1.45635327       -2.36113093
 C           -1.54319931       -3.50595133       -0.91830052
 C           -2.73172642       -2.68781305       -1.06405679
 C           -0.70397730       -3.20599808       -2.06674051
 C           -2.84524674       -2.34894856       -2.46645880
 C           -1.54234321       -2.59190510       -3.07117240
 C           -3.36501018       -0.01973812       -1.75732504
 C           -3.24712149       -1.00581498       -2.81666234
 C           -2.35651728        2.18946276       -1.43128387
 C           -1.49188619        3.14183329       -1.97791592
 C           -2.86500292        1.22726096       -2.29712086
 C            0.60289118        3.37489818       -3.01918984
 C            1.76740987        2.52861265       -3.13065940
 C            1.57156462        1.10126061       -3.31389206
 C           -0.70050569        2.75942119       -3.13416932
 C            0.09060531       -0.77461380       -3.25162892
 C           -1.10341490       -1.35302974       -3.66988200
 C           -2.26781209       -0.50279332       -3.76371249
 C           -2.08871162        0.90377057       -3.48655606
 C            0.29126462        0.58768838       -3.49266159
 C           -0.81633735        1.45064081       -3.58562552
