   70
C70 / DATE: 7/ 1/2024 / Origin: Program Fullerene / C70 from database
 C            1.27051589       -0.04556328        4.45042254
 C            2.53601301       -0.39417307        3.84607952
 C            2.54208390       -1.83013499        3.63153044
 C            0.42483822       -1.22890935        4.44590779
 C            1.21393910       -2.33830361        3.94630906
 C           -0.81696694       -0.88491097        3.76972641
 C            0.50909221        1.02995777        3.85604983
 C           -0.84557808        0.55595786        3.63015519
 C            1.08591307        1.82487134        2.87258785
 C            2.90412236        0.24659183        2.59513758
 C            2.14243474        1.30716289        2.10779863
 C            3.10467217       -2.07934348        2.31361877
 C            3.32151437       -0.79185695        1.66947437
 C            2.60863872       -3.13407414        1.56118229
 C            0.61802030       -3.24191009        3.07730896
 C            1.42648692       -3.83928980        2.02898455
 C           -1.25967404       -1.66974043        2.71366298
 C           -0.68243890       -2.92544109        2.49942772
 C           -2.02040891       -1.08549725        1.69735360
 C           -1.56379047        1.13131139        2.58597462
 C           -2.20070183        0.30612434        1.65478548
 C            0.23748095        2.75062915        2.28216970
 C           -1.17329890        2.40444892        2.18508238
 C            0.61525444        3.36256369        1.02692519
 C            2.20958622        1.60076809        0.74322534
 C            1.62165686        2.77320428        0.27153612
 C            3.03159998       -0.63932115        0.31545228
 C            2.64607832        0.61971999       -0.15863791
 C            2.48328038       -2.97736592        0.12421590
 C            2.82962231       -1.77218330       -0.48062833
 C            0.56445034       -4.08216264        0.88455270
 C           -0.72921850       -3.50846347        1.16709680
 C            1.25519500       -3.63296091       -0.30120971
 C           -2.29971121       -1.84468757        0.56232011
 C           -1.37727182       -2.80048445        0.16755960
 C           -3.16048585       -1.34269536       -0.39488881
 C           -2.82868356        0.87827403        0.54233498
 C           -3.55832571        0.04541174       -0.29734651
 C           -1.67744649        2.95268761        0.93955407
 C           -0.61874353        3.77213111        0.37705550
 C           -2.43665114        2.14850788        0.09733147
 C           -0.60564056        4.00375345       -0.98789165
 C            1.72060712        3.09392048       -1.07650908
 C            0.65400664        3.86391433       -1.69603564
 C            2.53063741        0.82794401       -1.53507170
 C            2.12766615        2.06735938       -2.01526167
 C            2.43268088       -1.60203155       -1.80121517
 C            2.38827941       -0.27050574       -2.36945065
 C            0.52463179       -3.04281820       -1.32825109
 C           -0.82232061       -2.71205370       -1.11853526
 C            1.24950278       -2.31419232       -2.25740439
 C           -2.83058142       -1.59084579       -1.78332850
 C           -1.52551170       -1.98583342       -2.09306813
 C           -3.89177593        0.48909115       -1.63515584
 C           -3.50002520       -0.56714102       -2.55949081
 C           -2.54862334        2.50066914       -1.25477876
 C           -1.64027671        3.40313860       -1.81329810
 C           -3.32261889        1.72852677       -2.11536330
 C            0.37575325        3.28402190       -2.99875521
 C            1.22966043        2.12329534       -3.16242424
 C           -1.05702433        3.11313226       -3.11604405
 C            1.34250059       -0.25899554       -3.37982797
 C            0.55357649       -1.46788219       -3.19982556
 C           -0.82828955       -1.36519391       -3.14529292
 C            0.69371651        0.93879930       -3.66911990
 C           -2.78874709        0.04413218       -3.65532083
 C           -2.83066982        1.48282952       -3.45938475
 C           -1.53422344        2.02327282       -3.82750498
 C           -1.40718426       -0.32656766       -3.87250923
 C           -0.64280050        0.89540978       -4.08105965
