   70
C70 / DATE: 7/ 1/2024 / Origin: Program Fullerene / C70 from database
 C            1.23102791        0.00496974        4.38524059
 C            2.55301571       -0.26924507        3.87805100
 C            2.58435901       -1.66273570        3.47314017
 C            0.40326151       -1.17087391        4.14523908
 C            1.21527926       -2.15173378        3.46752370
 C           -0.81542517       -0.72645582        3.50917135
 C            0.51550536        1.14667716        3.85821811
 C           -0.85077581        0.71722700        3.62320698
 C            1.11581941        1.99625938        2.92761431
 C            3.04397609        0.52075811        2.76773483
 C            2.34526261        1.65003582        2.33815547
 C            3.34977393       -1.75427019        2.24062428
 C            3.56908648       -0.39646026        1.76589577
 C            2.97912629       -2.72330134        1.32415897
 C            0.74432484       -2.76043652        2.30883003
 C            1.70159935       -3.38693531        1.51890570
 C           -1.21893064       -1.30204464        2.30941919
 C           -0.46175890       -2.32702165        1.72019783
 C           -2.15815405       -0.61364275        1.54217142
 C           -1.61222194        1.42617382        2.70776751
 C           -2.46419050        0.71868824        1.86386380
 C            0.28377275        2.92694800        2.30585725
 C           -1.14797090        2.67300352        2.29281227
 C            0.63757217        3.49119437        1.01446627
 C            2.68536991        2.16040925        1.08688798
 C            1.81575534        3.10382020        0.40993642
 C            3.39267553       -0.08339849        0.41678530
 C            3.23151636        1.25435537        0.08762308
 C            3.04716379       -2.40473532       -0.08786821
 C            2.96878789       -1.07110169       -0.48052724
 C            1.31926517       -3.94167452        0.24627674
 C            2.22707182       -3.39113419       -0.75343597
 C           -0.86161988       -2.83933907        0.47433789
 C           -0.02376339       -3.70778425       -0.22812332
 C           -2.62746480       -1.18761982        0.35967730
 C           -1.93061725       -2.25233519       -0.21207909
 C           -3.63932353       -0.56172851       -0.36715282
 C           -3.31193593        1.45396174        1.04567946
 C           -4.02871902        0.78605870       -0.01798939
 C           -1.69351787        3.27392351        1.08554083
 C           -0.57308482        3.58253827        0.21405594
 C           -2.83738654        2.72591520        0.52910271
 C           -0.57697690        3.11848858       -1.10328864
 C            1.81381980        2.77158696       -1.00294139
 C            2.67292124        1.61400794       -1.19679655
 C            0.64265674        2.85760510       -1.74983834
 C            2.26726465       -0.71646537       -1.64895862
 C            2.26324530        0.61901331       -2.07606005
 C            1.41634027       -2.97767017       -1.87442977
 C            0.10041814       -3.54841626       -1.66222674
 C            1.49907170       -1.67060719       -2.34190159
 C           -2.09954495       -2.53117897       -1.57141111
 C           -0.96233730       -2.99082575       -2.34427404
 C           -3.62694544       -0.64068393       -1.81664015
 C           -2.82439500       -1.59726600       -2.41724282
 C           -3.90214909        1.60609537       -1.21289464
 C           -2.94577044        2.65818364       -0.91509530
 C           -1.79971496        2.77106145       -1.70115507
 C           -3.63985047        0.72067496       -2.33310735
 C           -1.83011354        2.24266852       -2.98962265
 C           -2.69520166        1.10654012       -3.27698554
 C            0.64982490        2.21986867       -2.98452171
 C            1.44045480        1.00600160       -3.13160731
 C           -0.59011051        2.03999136       -3.70228566
 C            0.52112609       -1.24840544       -3.24174206
 C           -0.68667341       -1.94622357       -3.31454438
 C           -1.93293655       -1.21988533       -3.50691763
 C           -1.88949183        0.09714308       -3.94531895
 C            0.61010831        0.02075476       -3.79108884
 C           -0.59854746        0.69103315       -4.24409660
