   70
C70 / DATE: 7/ 1/2024 / Origin: Program Fullerene / C70 from database
 C            1.08847169       -0.00606419        4.58086898
 C            2.32470522       -0.36411953        3.92450496
 C            2.27056481       -1.78926125        3.65024071
 C            0.26802909       -1.20881967        4.65165204
 C            0.88315125       -2.18741386        3.78166458
 C           -1.09542564       -0.81630564        4.38856942
 C            0.26414155        1.03140562        3.99375925
 C           -1.09848505        0.63025921        4.24604333
 C            0.57555756        1.54797353        2.73281072
 C            2.65956074        0.28881219        2.67820041
 C            1.78855643        1.21603731        2.11236323
 C            2.92348146       -2.01641779        2.37601650
 C            3.25276115       -0.71416720        1.81353743
 C            2.37695456       -2.96945179        1.53284625
 C            0.21165320       -2.63979816        2.64249022
 C            0.96321030       -3.30242887        1.67896014
 C           -1.75700695       -1.35315383        3.21462463
 C           -1.02371831       -2.08068803        2.28041082
 C           -2.07927856        0.94934467        3.24021488
 C           -2.63054888       -0.30173800        2.74246830
 C           -0.43838923        2.16367684        1.97524383
 C           -1.78548486        1.92749887        2.30152986
 C           -0.11163242        2.73799432        0.73459658
 C            1.96213713        1.53616703        0.77416459
 C            1.17097116        2.52746719        0.21795513
 C            3.16571190       -0.53317770        0.43471482
 C            2.71654818        0.69606227       -0.05556472
 C            2.63988798       -2.85859968        0.11404887
 C            3.12099289       -1.65430389       -0.39701921
 C            0.41745546       -3.48984285        0.34853639
 C            1.54419269       -3.52619383       -0.56542812
 C           -1.42020940       -2.04328293        0.93455229
 C           -0.73270280       -2.80355233       -0.02263960
 C           -3.06273642       -0.32260702        1.42281868
 C           -2.54990729       -1.29754451        0.56150404
 C           -2.74536727        2.08979987        1.31756669
 C           -3.45919243        0.90062757        0.88561178
 C           -1.12669049        3.25396271       -0.08639488
 C           -2.43910746        2.86969350        0.14484644
 C           -0.81999021        3.78140617       -1.33854945
 C            1.52162238        3.01360744       -1.03092422
 C            0.54437306        3.73945003       -1.81239463
 C            2.78132732        0.94947339       -1.42928396
 C            2.24157203        2.13295901       -1.93003462
 C            3.08395689       -1.46738756       -1.77389481
 C            2.90161645       -0.12788481       -2.30498816
 C            1.32823944       -3.23905511       -1.90265465
 C            2.27860539       -2.37274730       -2.57712719
 C           -1.01462198       -2.65090135       -1.38387393
 C           -0.00205542       -2.83554188       -2.32668158
 C           -2.96089601       -1.29549567       -0.76903365
 C           -2.13522074       -1.93203660       -1.77397818
 C           -3.71163449        1.02430017       -0.53809731
 C           -3.22761874        2.33175030       -0.95311457
 C           -3.50583972       -0.07788401       -1.35294502
 C           -1.67935896        3.44974106       -2.46506923
 C           -2.77539640        2.52078321       -2.25208682
 C            0.53444832        3.16951368       -3.15220296
 C            1.46618541        2.06389878       -3.15565540
 C           -0.83833389        2.90882047       -3.51836343
 C            1.98840850       -0.21302337       -3.43690967
 C            1.55155260       -1.58319045       -3.55564915
 C            0.14416252       -1.86063253       -3.39863071
 C            1.06527511        0.81036565       -3.60598581
 C           -2.01793382       -1.01884659       -2.90046079
 C           -2.91428872        0.09814161       -2.67117330
 C           -2.54291605        1.36365074       -3.10615095
 C           -1.24848677        1.53487473       -3.74573023
 C           -0.76180440       -0.80899745       -3.46342575
 C           -0.30776198        0.50303808       -3.67782014
