   70
C70 / DATE: 7/ 1/2024 / Origin: Program Fullerene / C70 from database
 C            1.55706524        0.01401038        4.68197161
 C            0.76255248       -1.18511975        4.48660887
 C            1.39996347       -1.98208102        3.45162231
 C            2.67089585       -0.04319168        3.75441370
 C            2.68662997       -1.36741358        3.16331367
 C            2.58591674        1.10353216        2.86362931
 C            0.73280474        1.14711602        4.30849734
 C            1.38767134        1.84297027        3.21417958
 C           -0.61429692       -0.77569389        4.28825962
 C           -0.62228927        0.66751459        4.09747747
 C           -1.40735454       -1.55128963        3.46037582
 C            0.61522602       -2.47816150        2.40602875
 C           -0.76607517       -2.51003846        2.56807587
 C            1.16691524       -2.61952973        1.12742686
 C            3.19938416       -1.48959226        1.88603810
 C            2.52081478       -2.36375546        0.95136464
 C            2.89857056        0.91913767        1.51806878
 C            3.50783551       -0.27472566        1.14695883
 C            2.22264846        1.66111255        0.54329818
 C            0.59330085        2.33802154        2.19242004
 C            1.12808923        2.45705992        0.91125402
 C           -1.34861051        1.21193954        3.03969529
 C           -0.78970454        2.27900644        2.33801039
 C           -2.45207790       -0.90312086        2.69368201
 C           -2.36717796        0.46446182        2.43842633
 C           -1.61993251       -2.65790073        1.40575474
 C           -2.77971171       -1.80475071        1.60895514
 C            0.34074270       -2.69537436       -0.00316523
 C           -1.05370072       -2.73606492        0.13867026
 C            0.91060972       -2.71925624       -1.28545237
 C            2.99818628       -1.98904061       -0.36079858
 C            3.54195164       -0.64235786       -0.25156238
 C            2.23037513       -2.28404463       -1.47582140
 C            2.51631531        1.45486550       -0.81126042
 C            3.17933040        0.28920298       -1.21648688
 C            1.93093318        2.28152290       -1.76561144
 C            0.37973087        3.12488627       -0.06130069
 C            0.79554227        3.10433943       -1.38936172
 C           -1.57312686        2.94704546        1.41327819
 C           -0.92917731        3.50300158        0.23660866
 C           -3.04608663        0.99774315        1.33756510
 C           -2.80865476        2.32280405        0.98103543
 C           -3.42976080       -1.29274578        0.50067059
 C           -3.66315860        0.14051484        0.42167953
 C           -1.87514543       -2.51611203       -0.96939238
 C           -3.02455085       -1.74190327       -0.81978230
 C            0.07589067       -2.90402731       -2.38748265
 C           -1.33900213       -2.63258929       -2.24425201
 C            0.46881103       -2.39743534       -3.69168845
 C            2.56202396       -1.59093365       -2.63653222
 C            2.97820982       -0.20553483       -2.50432602
 C            1.72901079       -1.70215569       -3.81235903
 C            1.67270030        1.77191861       -3.10188579
 C            2.24587738        0.57227270       -3.48787001
 C            1.45467568       -0.35397603       -4.28423081
 C           -0.19464162        3.01130632       -2.45744729
 C            0.26447785        1.99490342       -3.38057304
 C           -1.92008246        3.53358146       -0.82384888
 C           -3.06723393        2.76028141       -0.38065405
 C           -1.54174460        3.06203013       -2.14045945
 C           -3.72102560        0.49391869       -0.99174899
 C           -3.25455956       -0.65046664       -1.75178708
 C           -3.35540223        1.76604992       -1.39531657
 C           -2.37906189        1.91607498       -2.46299170
 C           -1.68831367       -1.62242883       -3.23270112
 C           -0.57718755       -1.49413548       -4.14611154
 C            0.01159543       -0.18619027       -4.32642977
 C           -0.55506038        0.90666588       -3.67739103
 C           -2.35788569       -0.48216834       -2.80249428
 C           -1.80148082        0.78449376       -3.04473747
