   70
C70 / DATE: 7/ 1/2024 / Origin: Program Fullerene / C70 from database
 C            1.70668828       -0.04120891        4.57616721
 C            0.89132845       -1.23778619        4.53076225
 C            1.23570295       -1.97852381        3.32895710
 C            2.63701666       -0.10934220        3.46920956
 C            2.38230794       -1.32445367        2.72162020
 C            2.53437022        1.13821328        2.75056599
 C            0.82776317        1.09409270        4.33638269
 C            1.28118962        1.75998357        3.13746611
 C           -0.48117769       -0.81726209        4.69324241
 C           -0.52639886        0.60609862        4.37169302
 C           -1.46373458       -1.62580671        4.14902167
 C            0.20480412       -2.44105138        2.51335172
 C           -1.09762172       -2.48887977        3.02777747
 C            0.39729215       -2.49120888        1.12835245
 C            2.45975715       -1.24984574        1.33582906
 C            1.59246046       -2.01655069        0.56668051
 C            2.81399743        1.12364981        1.40124437
 C            3.01061094       -0.10424761        0.76256154
 C            2.24857398        2.13454021        0.64961575
 C            0.36777758        2.08410414        2.12726429
 C            0.89542211        2.40645543        0.86819647
 C           -1.43781630        1.04427944        3.41368763
 C           -0.97205419        1.67041112        2.23409606
 C           -2.71798363       -0.99039070        3.80248024
 C           -2.67619143        0.40973818        3.42233937
 C           -2.22624902       -2.52079382        2.10905936
 C           -3.28773724       -1.72261672        2.68997745
 C           -0.69408601       -2.76797164        0.30239506
 C           -1.97343259       -2.44737783        0.74318648
 C           -0.49209772       -2.95156541       -1.05477419
 C            1.74317959       -1.99453409       -0.81984960
 C            0.81721291       -2.67407361       -1.60602558
 C            3.21141613       -0.07440306       -0.61867110
 C            2.60939679       -1.06499289       -1.40987281
 C            2.78943593        2.31864079       -0.60579995
 C            3.47589901        1.17844379       -1.17530386
 C            1.96287549        2.86833648       -1.65247475
 C            0.04198891        2.55701740       -0.23062404
 C            0.58192690        2.83703052       -1.49546936
 C           -1.83054662        1.84968516        1.13580738
 C           -1.30416914        2.20231082       -0.11195736
 C           -3.57513651        0.57348416        2.30947155
 C           -3.95877468       -0.75787405        1.85169847
 C           -3.11729367        1.31116130        1.15621935
 C           -2.83486657       -1.73737204       -0.10948090
 C           -3.71419760       -0.79922102        0.42626236
 C           -3.56944651        0.57121096       -0.00414202
 C           -1.47407927       -2.39690926       -1.96469901
 C           -2.45346550       -1.55631378       -1.44225362
 C            0.63165245       -2.30196964       -2.99756827
 C           -0.78701613       -2.04246987       -3.19571212
 C            2.68040087       -0.98849272       -2.80487341
 C            1.57541124       -1.48797521       -3.60392729
 C            3.48514189        1.35770558       -2.61016122
 C            2.55492042        2.43766469       -2.91037157
 C            3.14831324        0.22822878       -3.44325069
 C            1.14478952       -0.41185946       -4.48568033
 C            1.68590463        1.99209771       -3.97998026
 C            2.12279106        0.66053845       -4.37844388
 C           -0.22386356        2.75613555       -2.63026467
 C            0.32727623        2.25880935       -3.88793651
 C           -2.03518494        1.86798791       -1.25612678
 C           -2.90780110        0.79022883       -1.19365020
 C           -2.66556502       -0.30083691       -2.02580826
 C           -1.57185056        2.24345897       -2.50655124
 C           -1.19328100       -0.91658984       -3.89748500
 C           -0.20554169       -0.09117142       -4.57672642
 C           -0.61275875        1.29712115       -4.43550837
 C           -2.18775991       -0.03693316       -3.30600860
 C           -1.80781672        1.33201092       -3.61520938
