   70
C70 / DATE: 7/ 1/2024 / Origin: Program Fullerene / C70 from database
 C            1.63266294       -0.14490200        5.10796345
 C            0.73965017       -1.28220847        5.25098235
 C            1.22494567       -2.33799680        4.38369615
 C            2.62621896       -0.47830518        4.10353882
 C            2.39352261       -1.84367756        3.67306585
 C            2.61437721        0.56710570        3.09530189
 C            0.85648651        0.96489382        4.58949652
 C            1.55105256        1.49863804        3.42644387
 C           -0.56899366       -0.88952956        4.75721620
 C           -0.51249554        0.51635697        4.40813506
 C            0.09995343       -2.81761661        3.59949589
 C           -0.96516749       -1.83338863        3.72615219
 C            0.36993993       -3.33922935        2.34462602
 C            2.50483646       -2.13318183        2.31751907
 C            1.69919307       -3.14353965        1.79343650
 C            2.76951635        0.20123317        1.76576808
 C            2.98267076       -1.14400768        1.45420751
 C            2.29435342        1.06245596        0.77375124
 C            0.77529644        2.00852883        2.38785960
 C            1.27727630        1.96912097        1.08152300
 C           -1.16195187        0.93420245        3.25636859
 C           -0.60551630        1.99978831        2.56064265
 C           -1.57804384       -1.33621469        2.57589799
 C           -1.92628244        0.01682352        2.53068379
 C           -0.56180879       -3.08334169        1.26126403
 C           -1.48444645       -2.04972446        1.37823328
 C            1.58789898       -3.28677062        0.35311202
 C            0.17431674       -3.22413988        0.01668041
 C            3.21260829       -1.48062998        0.12776506
 C            2.48483043       -2.60388247       -0.44724187
 C            2.60150026        0.79182981       -0.55688344
 C            3.20961275       -0.42405525       -0.86670545
 C            1.97538799        1.51076007       -1.57640659
 C            0.50909765        2.52426190        0.05131260
 C            0.81511238        2.24062353       -1.28371404
 C           -1.38825612        2.58650133        1.58663487
 C           -0.74560866        3.03259253        0.36701036
 C           -2.62503535        0.49512219        1.42103448
 C           -2.57584620        1.86650742        1.17846270
 C           -2.00391928       -1.48027941        0.21888121
 C           -2.83008719       -0.36723994        0.34252278
 C           -0.23059042       -2.47976622       -1.08873698
 C           -1.43077291       -1.77958942       -1.02521611
 C            2.06034751       -2.19736738       -1.77325065
 C            2.89274008       -1.06544927       -2.12628746
 C            0.69763733       -2.14612843       -2.07678373
 C            2.25224718        1.13838368       -2.89033949
 C            2.47102933       -0.26777790       -3.16766057
 C            1.42025205        1.63166864       -3.96850748
 C           -0.09827418        2.57998467       -2.30168209
 C            0.26210495        2.42911186       -3.64061864
 C           -1.77580029        3.07652153       -0.65120819
 C           -2.94126462        2.37073911       -0.12752110
 C           -1.42629011        2.89744058       -1.98287525
 C           -3.49241797        0.09743464       -0.79015889
 C           -3.64321167        1.53270998       -0.97667257
 C           -1.91358827       -1.15512959       -2.17233060
 C           -3.11924591       -0.46112085       -2.07655006
 C            0.29229831       -1.36150199       -3.16182227
 C            1.28402753       -0.68268381       -3.87837762
 C            0.93512528        0.46087248       -4.69215791
 C           -1.04400706       -0.94127046       -3.25402178
 C           -0.75181017        2.05234635       -4.60742745
 C           -0.45608981        0.68472344       -4.99681066
 C           -1.44136945       -0.14614518       -4.33625938
 C           -2.45209007        2.58958207       -2.87972865
 C           -3.56589070        1.79712372       -2.39996171
 C           -3.48351537        0.51629300       -3.07949143
 C           -2.13586274        2.07129124       -4.19272223
 C           -2.61457688        0.69421870       -4.22055376
