   70
C70 / DATE: 7/ 1/2024 / Origin: Program Fullerene / C70 from database
 C            1.68465257       -0.32718502        5.22688442
 C            0.82251458       -1.49901883        5.22895032
 C            1.32502326       -2.42141299        4.22906657
 C            2.71311318       -0.53469567        4.22574380
 C            2.58625179       -1.89621375        3.73638922
 C            2.64571567        0.56019256        3.26298567
 C            0.89022987        0.80758410        4.79828449
 C            1.53619385        1.41195733        3.64150284
 C           -0.49798032       -1.07929448        4.80160735
 C           -0.48407525        0.36431781        4.64992500
 C            0.25806101       -2.68513853        3.26870532
 C           -0.88465178       -1.87849031        3.64729187
 C            0.59047091       -2.79576786        1.92110712
 C            2.89474478       -2.12552580        2.40972877
 C            1.93862436       -2.85616381        1.59652720
 C            2.84797771        0.27266116        1.91570532
 C            3.30633329       -0.99716521        1.59325218
 C            2.17638306        1.01815938        0.93386295
 C            0.71862337        1.92397698        2.64301428
 C            1.15472515        1.89755170        1.31321693
 C           -1.21007632        0.89661327        3.59714037
 C           -0.64956590        1.95989637        2.89420153
 C           -1.61846869       -1.25262243        2.64860226
 C           -2.05952305        0.04346358        2.89755318
 C           -0.32279606       -2.37873813        0.93983818
 C           -1.46576803       -1.66420520        1.31948499
 C            0.03332153       -2.45242831       -0.41848566
 C            2.32782836       -2.61544685        0.23310058
 C            3.19002630       -1.44350651        0.23104431
 C            1.37313594       -2.68536176       -0.76576893
 C            2.35044031        0.69700823       -0.42401683
 C            2.97097903       -0.51355206       -0.76957610
 C            1.63830890        1.40990332       -1.40479018
 C            0.34986998        2.49065908        0.33672635
 C            0.61789108        2.28829107       -1.01985217
 C           -1.46232538        2.61987115        1.99049677
 C           -0.89583644        2.99958168        0.70859030
 C           -2.93299339        0.62092674        1.99399817
 C           -2.76531471        2.03757395        1.72899777
 C           -2.27314609       -1.07449882        0.34299378
 C           -3.12908652       -0.03580605        0.71392169
 C           -0.86081913       -1.98687183       -1.39882276
 C           -2.00242164       -1.27318448       -1.01358936
 C           -0.48445831       -2.01302914       -2.75104073
 C            1.81412859       -2.24140557       -1.99966406
 C            2.67634909       -1.06948128       -2.00171252
 C            0.86550904       -2.07479912       -3.06770545
 C            1.77308767        1.05534173       -2.75644229
 C            2.23325137       -0.21581725       -3.07097460
 C            1.43393172       -1.06189255       -3.93959672
 C            1.03761289        1.73107463       -3.72661355
 C           -0.33965123        2.69442252       -1.95654013
 C           -0.06366605        2.57677301       -3.31210529
 C           -1.97960608        2.99648675       -0.25775639
 C           -3.08520397        2.27048471        0.33873388
 C           -3.45030237        0.99756992       -0.25425761
 C           -1.67819924        2.70883486       -1.57655364
 C           -2.67667347       -0.48202079       -1.95096721
 C           -3.08816828        0.79243688       -1.57319960
 C           -2.55888699        1.87869843       -2.26511189
 C           -1.35006370       -1.51418702       -3.72090212
 C           -2.48449988       -0.71357443       -3.30633041
 C            0.60727766       -0.45531712       -4.86506750
 C            0.61051924        0.99622195       -4.91312654
 C           -0.77760203       -0.89048309       -4.90980282
 C           -1.18185227        2.31626817       -4.20788674
 C           -2.39003767        1.75208079       -3.63414884
 C           -2.57006735        0.42943514       -4.20458301
 C           -0.72858539        1.42990086       -5.26212049
 C           -1.59073413        0.25808227       -5.26006356
