   70
C70 / DATE: 7/ 1/2024 / Origin: Program Fullerene / C70 from database
 C            0.96908925       -0.01885700        4.71124223
 C            2.27426583       -0.39163714        4.20992341
 C            2.20055319       -1.77833106        3.77701411
 C            0.13344400       -1.20777361        4.65760667
 C            0.79818518       -2.15369527        3.78547787
 C           -1.19843588       -0.77595320        4.31604657
 C            0.24186627        1.03889621        4.03212982
 C           -1.15059388        0.66381227        4.09467092
 C            0.74886884        1.56187756        2.84219705
 C            2.82796184        0.36609443        3.10952391
 C            2.11925209        1.43921972        2.57575261
 C            2.94389326       -1.89649594        2.53403310
 C            3.44422731       -0.57511318        2.19005779
 C            2.42053312       -2.68947398        1.52895482
 C            0.20064604       -2.54807509        2.58482710
 C            1.01790242       -3.08015645        1.59209261
 C           -1.83676284       -1.35310676        3.15209954
 C           -1.10597397       -2.14385411        2.26397718
 C           -1.99015941        0.94237274        2.95131677
 C           -2.65587652       -0.29688006        2.60391620
 C           -0.13152819        2.00699970        1.83616643
 C           -1.50370014        1.72438497        1.90750964
 C            0.38127867        2.61166141        0.68475855
 C            2.63328950        2.00081824        1.41902121
 C            1.75877730        2.75169558        0.54696468
 C            3.56192597       -0.19574055        0.85226911
 C            3.47568892        1.16872868        0.57372751
 C            2.71683408       -2.35431086        0.15123854
 C            3.29854568       -1.12698859       -0.16288072
 C            0.52678322       -3.17848647        0.23305113
 C            1.61743330       -2.84494094       -0.66347049
 C           -1.58131195       -2.25534128        0.94827978
 C           -0.74172210       -2.71779057       -0.07091251
 C           -3.08895907       -0.42366329        1.29981988
 C           -2.76114304       -1.58442864        0.60345133
 C           -2.26032310        1.74195897        0.73387319
 C           -3.23103327        0.74611316        0.56824212
 C           -0.44258942        2.81826595       -0.42590509
 C           -1.78504815        2.44160210       -0.37579422
 C            0.12828198        3.16761984       -1.65176144
 C            2.35620038        2.71999129       -0.77661199
 C            3.32418139        1.63273020       -0.79200006
 C            1.54138937        2.93244962       -1.87585235
 C            3.25212030       -0.71175034       -1.49277791
 C            3.30277756        0.70346742       -1.81956435
 C            1.33176909       -2.19997414       -1.86147550
 C            2.29128417       -1.33666455       -2.38917569
 C           -1.03613481       -2.41454057       -1.39826255
 C            0.00266505       -2.09419716       -2.28258704
 C           -3.26356558       -1.72147953       -0.68975045
 C           -2.35764442       -2.14984763       -1.73923805
 C           -3.95858292        0.66801774       -0.60932367
 C           -4.07499864       -0.63877015       -1.22933066
 C           -2.55976315        2.50277719       -1.53441009
 C           -3.71698572        1.63953416       -1.65352147
 C           -0.55705729        2.83214363       -2.88588647
 C           -1.90595524        2.52087164       -2.83063269
 C            1.65756630        2.06802443       -3.04118045
 C            2.45475967        0.92959890       -2.98017055
 C            1.91526817       -0.35649195       -3.39455000
 C            0.34630361        2.00031263       -3.66891044
 C           -0.27647616       -1.43042644       -3.47610564
 C            0.65127177       -0.42600201       -3.96259006
 C           -0.10596121        0.79448350       -4.19561079
 C           -2.66202529       -1.39063157       -2.94162334
 C           -3.76220890       -0.49367038       -2.63945308
 C           -3.61398345        0.92307801       -2.91660901
 C           -2.41287244        1.38681430       -3.58697835
 C           -1.61889112       -0.94978093       -3.74322275
 C           -1.51881683        0.45890519       -4.11310349
