   70
C70 / DATE: 7/ 1/2024 / Origin: Program Fullerene / C70 from database
 C            1.38401918        0.07438449        4.99320307
 C            0.62293334       -1.12556190        4.71005742
 C            1.48697182       -2.04106233        3.99999140
 C            2.64126172       -0.02400904        4.26906209
 C            2.70458937       -1.32769361        3.64950063
 C            2.73652404        1.13499133        3.41342633
 C            0.64542187        1.20501848        4.44991749
 C            1.54693825        1.94717779        3.61266976
 C           -0.61093764       -0.72153436        4.06695636
 C           -0.56925481        0.71280939        3.84676897
 C           -1.13308197       -1.49601699        3.04499435
 C            0.97588745       -2.64620833        2.78837621
 C           -0.37040935       -2.52768109        2.47483277
 C            2.86091657       -1.40325687        2.20485201
 C            1.92398470       -2.40132622        1.72262516
 C            3.19870707        0.99745636        2.10681028
 C            3.04375947       -0.23946779        1.45712348
 C            3.12791899        2.15385164        1.34118769
 C            1.04837163        2.59811001        2.49405331
 C            2.02753211        3.05997925        1.62898850
 C           -0.95854140        1.20005704        2.59397165
 C           -0.18567767        2.18218099        1.94675645
 C           -2.08989786       -0.89160452        2.24096035
 C           -1.86359660        0.43283463        1.84915029
 C           -2.81006163       -1.73091332        1.41021927
 C           -0.75732035       -2.96886772        1.21428103
 C           -2.11658991       -2.91402620        0.94857462
 C            1.42180529       -2.28476919        0.43085295
 C            0.14725539       -2.78925756        0.15362569
 C            2.72939789       -0.27063525        0.09217605
 C            1.96445745       -1.32991830       -0.42598430
 C            3.23490159        2.06406923       -0.09726093
 C            3.03894392        0.83243042       -0.70861655
 C            1.63093297        3.68728824        0.39748352
 C            2.54559113        3.22452175       -0.63057528
 C           -0.53361641        2.57135375        0.64035764
 C            0.29114318        3.44215392       -0.07505090
 C           -2.23622181        0.84829068        0.56651531
 C           -1.52902945        1.88105861       -0.05654335
 C           -3.50969970       -1.17390323        0.27610980
 C           -3.17913462        0.10553656       -0.15759561
 C           -2.58280720       -3.21165084       -0.38313531
 C           -3.61791923       -2.24307543       -0.69978962
 C           -0.32008658       -2.74381260       -1.16692358
 C           -1.61788964       -3.16872046       -1.45435762
 C            1.53715439       -1.30450327       -1.75298076
 C            0.39539365       -2.02086374       -2.12806777
 C            2.71741381        0.81235985       -2.06324826
 C            2.07567543       -0.36205385       -2.62006755
 C            1.78066495        3.06280510       -1.84753196
 C            0.38273530        3.30442915       -1.51814663
 C            2.08062352        1.98250008       -2.66089326
 C           -1.67638781        2.10096223       -1.42973986
 C           -0.59174465        2.56524607       -2.17259968
 C           -3.48332295        0.46091442       -1.47156646
 C           -2.75222997        1.54115442       -2.10069306
 C           -3.48393225       -1.90770259       -2.10144369
 C           -2.31310775       -2.62323859       -2.60529733
 C           -3.68265634       -0.58438742       -2.47084704
 C           -0.13972078       -1.85268006       -3.40948026
 C           -1.56059013       -2.07095680       -3.63090511
 C            1.30153551        0.08314777       -3.76398486
 C            1.05102101        1.49793055       -3.55697337
 C           -0.26102159        1.92661735       -3.37138371
 C            0.25511491       -0.70574788       -4.21076095
 C           -2.59447479        1.21571794       -3.50665014
 C           -3.12059682       -0.12099264       -3.72349083
 C           -2.08002435       -0.91688581       -4.34644863
 C           -1.26253597        1.27295085       -4.08046375
 C           -0.96337892       -0.03730454       -4.63693394
