   70
C70 / DATE: 7/ 1/2024 / Origin: Program Fullerene / C70 from database
 C            1.22739772       -0.02993008        4.31401611
 C            2.50317059       -0.23966477        3.67147526
 C            2.54500394       -1.62346372        3.24253060
 C            0.41316287       -1.22024089        4.09279432
 C            1.18630859       -2.13546513        3.29127487
 C           -0.86762112       -0.77751159        3.59215933
 C            0.42719212        1.10631477        3.90882490
 C           -0.94266537        0.64110474        3.88603902
 C            0.85891572        1.94181003        2.87789353
 C            2.84366699        0.57719453        2.52472242
 C            2.00674460        1.61844090        2.13445586
 C            3.24264825       -1.67018300        1.97103682
 C            3.37420942       -0.30061983        1.49551315
 C            2.85054248       -2.63901961        1.06631462
 C            0.64379427       -2.66385191        2.12402344
 C            1.53957153       -3.24915706        1.24066482
 C           -1.31987095       -1.23135843        2.35301777
 C           -0.58610724       -2.18836137        1.63272445
 C           -2.32740687       -0.50762761        1.71414359
 C           -1.86932900        1.39887223        3.19813539
 C           -2.71930300        0.72939262        2.23308556
 C           -0.06519241        2.84247252        2.34024638
 C           -1.42905217        2.63494378        2.57044573
 C            0.33470168        3.67980535        1.30225664
 C            2.14429916        2.11497329        0.84051747
 C            1.48250541        3.29137420        0.50603183
 C            3.09865143       -0.00037143        0.15978491
 C            2.66741745        1.28788461       -0.16057135
 C            2.98078289       -2.35766887       -0.34705823
 C            2.97208947       -1.03405316       -0.78219380
 C            1.08284000       -3.66183900       -0.06344575
 C            2.13239345       -3.32149372       -1.01314863
 C           -1.02667283       -2.57661737        0.35428177
 C           -0.24016230       -3.44676179       -0.42291767
 C           -2.76022979       -0.88896836        0.44686383
 C           -2.19131577       -1.99908462       -0.17836238
 C           -3.55177519       -0.01477260       -0.30291477
 C           -3.22341237        1.75640709        1.33935997
 C           -2.40125451        2.94295980        1.53044442
 C           -3.62004755        1.38759222        0.06523720
 C           -0.66302041        4.23427163        0.40273758
 C           -2.01129780        3.70076513        0.43440441
 C            1.19212760        3.59349177       -0.88648388
 C           -0.16327969        4.10506410       -0.95539353
 C            2.50827904        1.62836012       -1.49649888
 C            1.61051564        2.70685037       -1.86412514
 C            2.55885309       -0.75018842       -2.09243086
 C            2.33163300        0.57010532       -2.46901930
 C            1.77335838       -3.08644022       -2.32743033
 C            1.98029896       -1.75354448       -2.87483347
 C           -0.57106185       -3.70067246       -1.75055336
 C            0.46191890       -3.53705099       -2.75897568
 C           -2.59664103       -2.29486466       -1.48004409
 C           -1.79226203       -3.16863730       -2.30153430
 C           -3.46848125       -0.04945977       -1.74892242
 C           -3.01191976       -1.20609474       -2.34369694
 C           -3.17253634        2.15717292       -1.08845129
 C           -2.34342331        3.25277160       -0.91029405
 C           -1.14799023        3.36619738       -1.72706924
 C           -2.86013756        1.20734711       -2.14127387
 C            0.62685213        2.15276002       -2.78333770
 C            1.13935433        0.88152979       -3.24657193
 C           -0.72791823        2.28365540       -2.50195771
 C           -1.58454579        1.19733364       -2.71035575
 C            0.81590116       -1.42065567       -3.68200958
 C           -0.03315555       -2.59078601       -3.74158791
 C           -1.44730250       -2.42761230       -3.51032404
 C           -1.97342683       -1.08818385       -3.34601731
 C            0.26156147       -0.14753231       -3.55856863
 C           -1.10884511        0.01059012       -3.28908422
