   70
C70 / DATE: 7/ 1/2024 / Origin: Program Fullerene / C70 from database
 C            1.46328474       -0.00044327        4.85496573
 C            0.67588064       -1.19490353        4.60354095
 C            1.57649170       -2.17308650        4.05398619
 C            2.66869949       -0.09986086        4.05010671
 C            2.81676152       -1.48646406        3.69667298
 C            2.57092280        0.87847587        2.98271633
 C            0.70617889        1.12371226        4.35132442
 C            1.51708839        1.80190998        3.35592354
 C           -0.48317223       -0.80716414        3.81999481
 C           -0.59113206        0.63565324        3.91961536
 C           -0.73333128       -1.41380806        2.58519985
 C            1.16410467       -2.90378078        2.87517901
 C           -0.00002552       -2.54167436        2.18413390
 C            3.08377391       -1.82277665        2.31429041
 C            2.38027265       -3.06837623        2.11138711
 C            2.66398834        0.47929149        1.64628877
 C            2.99120381       -0.84631117        1.31350634
 C            2.14396658        1.32804034        0.66697900
 C            0.82983017        2.44665087        2.34101585
 C            1.36066149        2.42631413        1.05259035
 C           -1.18299473        1.31881943        2.87146981
 C           -0.55291406        2.48391417        2.45279886
 C           -1.51808041       -0.72725133        1.65384867
 C           -1.89330520        0.59729805        1.91209043
 C           -1.74283334       -1.27655752        0.39318055
 C           -0.14541481       -3.03369016        0.88143083
 C           -1.06673514       -2.44166393        0.00407494
 C            2.24612141       -3.50682267        0.81853419
 C            0.90583908       -3.79492841        0.36148248
 C            2.83796566       -1.29044550       -0.00857304
 C            2.79923133       -2.66903895       -0.22421006
 C            2.18127689        0.93395259       -0.66809225
 C            2.33167193       -0.41664667       -0.98324081
 C            1.78165192        1.82992499       -1.65012965
 C            0.70810041        3.19260666        0.08089541
 C            1.01409177        2.99907161       -1.26460592
 C           -1.23549526        3.27598013        1.55568545
 C           -0.48849907        3.81699726        0.43656487
 C           -2.56801732        1.33375369        0.93340638
 C           -2.44420427        2.72633361        0.98551417
 C           -2.59118790       -0.61701468       -0.49811382
 C           -2.95839278        0.71011350       -0.25750272
 C           -2.86302380       -1.18811479       -1.73844973
 C           -1.14586788       -2.88969845       -1.32505415
 C           -2.06144909       -2.30630733       -2.19223296
 C            1.04294191       -3.94130677       -1.06710648
 C            2.23493441       -3.18796980       -1.44769662
 C           -0.02924796       -3.48065653       -1.90911423
 C            1.89878546       -0.89461168       -2.23566639
 C            1.83213700       -2.26202674       -2.47768613
 C            0.60553828       -2.80284932       -3.02357986
 C            1.23181664        1.32040564       -2.89171963
 C            1.19379612       -0.04980786       -3.09703862
 C            0.00828340        3.23269650       -2.29585754
 C            0.06855641        2.12439083       -3.23742191
 C           -1.46983347        4.15428500       -0.58055334
 C           -2.72792822        3.53742725       -0.17929744
 C           -1.21803846        3.78706050       -1.95830884
 C           -3.49842445        1.46544669       -1.30325163
 C           -3.29956947        2.89978502       -1.33638397
 C           -2.43316796        3.18416111       -2.47152295
 C           -3.10087313       -0.32674793       -2.88865153
 C           -1.09954434        1.49590346       -3.67717034
 C           -3.29159515        1.02247157       -2.66392665
 C           -2.34415194        1.96255097       -3.25013631
 C           -1.61208769       -1.99853432       -3.54238410
 C           -0.18427547       -1.97548301       -3.79806841
 C            0.19853953       -0.57624280       -3.92327581
 C           -2.14112887       -0.70144411       -3.90509033
 C           -1.01844661        0.18911245       -4.14928052
