   70
C70 / DATE: 7/ 1/2024 / Origin: Program Fullerene / C70 from database
 C            1.19628377       -0.04427563        4.61990660
 C            2.49811663       -0.33233973        4.05017611
 C            2.45138647       -1.67820124        3.50519422
 C            0.35691843       -1.21511862        4.41663849
 C            1.07406826       -2.13978031        3.57198199
 C           -0.93473261       -0.75973391        3.97229197
 C            0.45915366        1.11828793        4.15125653
 C           -0.89155380        0.68736406        3.84126166
 C            1.07851982        2.03879639        3.31949115
 C            3.02379059        0.54451595        3.02055924
 C            2.40974462        1.76783003        2.78531768
 C            3.11275138       -1.66166543        2.21380455
 C            3.41152422       -0.27625526        1.88358593
 C            2.61801675       -2.48776728        1.22092468
 C            0.46924784       -2.61626900        2.40850594
 C            1.30050684       -3.08303297        1.39614590
 C           -1.60496097       -1.46835205        2.98804291
 C           -0.86773977       -2.29148387        2.11261650
 C           -2.75870250       -0.85786674        2.52337792
 C           -1.59782196        1.26886013        2.78539772
 C           -2.72664598        0.58509787        2.34361998
 C            0.29922084        2.66911280        2.26721350
 C           -0.93423167        2.13524098        1.90456089
 C            2.45957270        2.32633939        1.44831971
 C            1.22845692        3.06760810        1.22926445
 C            3.18210828        0.19824437        0.58921663
 C            2.97401647        1.56889878        0.39925820
 C            2.70450974       -2.05052489       -0.15754068
 C            2.88966200       -0.70483613       -0.44436820
 C            0.75990513       -3.32543697        0.07770431
 C            1.69885049       -2.78316202       -0.89485426
 C           -1.42061947       -2.67519695        0.87259333
 C           -0.59983786       -3.17044917       -0.14881513
 C           -3.46294424       -1.43668119        1.40903828
 C           -2.75457890       -2.38364197        0.58211936
 C           -3.26830131        0.86837446        1.03299965
 C           -3.90080209       -0.34518205        0.55401500
 C           -1.36470135        2.27026333        0.57695864
 C           -2.51811199        1.61381062        0.13930518
 C            0.77376136        3.20167743       -0.07458266
 C           -0.57779786        2.97431216       -0.34714727
 C            2.77255729        2.05244508       -0.88704298
 C            1.70769833        3.02031082       -1.09113059
 C            2.50527752       -0.23021080       -1.69858613
 C            2.70200910        1.11422746       -1.98628909
 C            1.19595944       -2.24205724       -2.07080366
 C            1.68844117       -1.01462829       -2.52793401
 C           -1.01979607       -3.09738808       -1.47683165
 C           -0.06247990       -2.66825218       -2.48512402
 C           -3.14285110       -2.10305730       -0.78821286
 C           -3.66552975       -0.74695458       -0.81992660
 C           -2.30685144       -2.51181438       -1.81123180
 C           -2.72697413        1.43127449       -1.22438628
 C           -3.09957150        0.16885587       -1.70338572
 C           -1.03623730        3.12897769       -1.65731173
 C           -2.19024106        2.36496345       -2.09592304
 C            1.26145577        2.90432592       -2.46580138
 C            1.93929633        1.74863562       -3.04577886
 C           -0.07600301        3.14176206       -2.75049114
 C            1.17810227       -0.47896347       -3.71305690
 C            1.28346562        0.94838978       -3.96937118
 C           -0.78509776       -1.91743108       -3.49508965
 C           -2.10374996       -1.63142730       -2.95169194
 C           -2.54690122       -0.31022964       -2.89372518
 C           -0.12120447       -0.92227078       -4.19535705
 C           -1.98881966        1.99575716       -3.48291327
 C           -0.68527601        2.48928042       -3.89472679
 C            0.02346413        1.39782377       -4.53603651
 C           -2.07337738        0.59366552       -3.84006308
 C           -0.87277415        0.25660860       -4.58713354
