   70
C70 / DATE: 7/ 1/2024 / Origin: Program Fullerene / C70 from database
 C            1.41499248       -0.13676993        4.19954987
 C            2.48480630       -0.32282761        3.23349464
 C            2.41266180       -1.69739399        2.76969897
 C            0.56130326       -1.31126194        4.14930077
 C            1.11924128       -2.22539356        3.16671146
 C           -0.80877933       -0.86256335        3.98611916
 C            0.56990547        1.03788129        4.08257243
 C           -0.78388823        0.58012039        3.80632535
 C            1.06111158        2.13044815        3.38715583
 C            2.76053446        0.70478036        2.33081934
 C            2.29997958        1.98321569        2.63819374
 C            3.16263381        0.39160900        1.02235389
 C            2.90309206       -2.00424735        1.51509734
 C            3.44491363       -0.93575112        0.69711180
 C            2.12062027       -2.86233660        0.64196873
 C            0.27806448       -2.78409641        2.20545234
 C            0.80064671       -3.17103542        0.96628033
 C           -1.65820390       -1.61702091        3.19285277
 C           -1.10351912       -2.69257258        2.38350412
 C           -2.65387828       -0.93856222        2.38244009
 C           -1.51631350        1.15231297        2.76355822
 C           -2.59189263        0.44357703        2.21570152
 C            0.15491136        2.88394402        2.54383627
 C           -1.02598131        2.29071461        2.11131610
 C            2.30395110        3.00816116        1.61946112
 C            0.97080578        3.59058405        1.57637653
 C            3.16167650        1.36679463        0.01136970
 C            2.66584400        2.63992693        0.27066979
 C            3.23824236        0.98024104       -1.32541552
 C            3.36031872       -1.37517490       -0.68306420
 C            2.45179858       -2.50868226       -0.73025167
 C            3.30448873       -0.42626624       -1.68464832
 C            1.45847549       -2.56763454       -1.70582111
 C           -0.05401469       -3.58222458       -0.05470764
 C            0.30837261       -3.30781669       -1.43714479
 C           -1.99787464       -2.89272027        1.25690666
 C           -2.92547445       -1.77464593        1.22302320
 C           -1.48800879       -3.38087880        0.07012511
 C           -3.24471367       -1.15578124        0.01581145
 C           -3.31633029        1.00353116        1.16712717
 C           -3.75812355        0.13468027        0.08689453
 C           -1.56445831        2.66987452        0.88222992
 C           -2.84077049        2.23178187        0.56226800
 C            0.54067946        3.61080752        0.19069820
 C            1.66346967        3.19500248       -0.62604683
 C           -0.72008807        3.13322916       -0.13432619
 C            2.37619370        1.64395837       -2.29153353
 C            1.41618625        2.54287378       -1.83080063
 C            2.41464291       -0.63791137       -2.81271612
 C            1.47545332       -1.67022505       -2.77946055
 C            2.02971987        0.67341061       -3.31449215
 C            0.39814830       -1.62904493       -3.66345161
 C           -0.91936319       -3.03485717       -2.16452972
 C           -1.96504997       -2.82337790       -1.18157971
 C           -2.67759484       -1.62353810       -1.18112551
 C           -0.87354114       -2.21228304       -3.27358576
 C           -2.70570911       -0.84405337       -2.34879209
 C           -1.89050794       -1.18677762       -3.42806677
 C           -3.85624727        0.93498173       -1.11130591
 C           -3.26348739        2.23324050       -0.82584506
 C           -3.25275960        0.43704413       -2.32630914
 C           -0.96772957        2.77359473       -1.45859482
 C            0.10142880        2.44165643       -2.30031531
 C           -2.27232489        2.49469332       -1.85065340
 C           -2.50544552        1.53846738       -2.91433902
 C            0.82927719        0.81054813       -3.99283146
 C            0.10906266       -0.39156063       -4.36876421
 C           -1.31241844       -0.12374518       -4.23313916
 C           -0.14298906        1.77432923       -3.50286273
 C           -1.47017336        1.24901617       -3.78785579
