   70
C70 / DATE: 7/ 1/2024 / Origin: Program Fullerene / C70 from database
 C            1.29573378        0.06746779        4.47727713
 C            2.52508874       -0.25003748        3.78751517
 C            2.49559566       -1.66757688        3.47279808
 C            0.45754080       -1.12280124        4.47629613
 C            1.14137461       -2.14147585        3.70035889
 C           -0.88575371       -0.72561918        4.09152138
 C            0.49471975        1.16187253        3.97685886
 C           -0.88534413        0.71456030        3.91030980
 C            0.97155060        1.96536348        2.94316604
 C            2.83771252        0.46339179        2.56249660
 C            1.99320126        1.48137451        2.11021682
 C            3.07618373       -1.83886236        2.15567687
 C            3.33086082       -0.51564194        1.60813463
 C            2.53831939       -2.80468763        1.32337516
 C            0.46730500       -2.78509367        2.66336508
 C            1.20269956       -3.31826441        1.60548247
 C           -1.58741113       -1.51363310        3.19743873
 C           -0.91021443       -2.61135389        2.51955483
 C           -2.46881837       -0.87539555        2.23713993
 C           -1.70751522        1.31125963        2.95668930
 C           -2.43132482        0.50672348        2.05920971
 C            0.07166052        2.89411431        2.43463316
 C           -1.34563035        2.59803819        2.57068554
 C            0.26600049        3.41876353        1.10006769
 C            1.98974520        1.78599504        0.74173495
 C            1.10630845        2.74122989        0.23322005
 C            3.11868218       -0.27989424        0.25428481
 C            2.74108125        0.99994396       -0.13722943
 C            2.63084598       -2.61562314       -0.11096338
 C            2.91223812       -1.35087425       -0.62339541
 C            0.55302682       -3.56717330        0.32723378
 C            1.56124730       -3.39066117       -0.70531074
 C           -1.52795367       -2.76660567        1.21056219
 C           -2.53714503       -1.73264542        1.06830151
 C           -0.74327842       -3.10286621        0.11316995
 C           -2.72648293       -1.15060775       -0.17460508
 C           -2.89353221        1.03589063        0.84545366
 C           -3.12904091        0.18465206       -0.24051624
 C           -2.03709825        3.23417207        1.47462111
 C           -1.03172224        3.84529660        0.61720814
 C           -2.87326574        2.41304144        0.63274074
 C           -1.39469323        3.54418421       -0.75556149
 C           -2.70388006        2.91663393       -0.71710577
 C            0.86901314        2.80420172       -1.14031247
 C           -0.43095651        3.02667282       -1.61856291
 C            2.76058171        1.30828687       -1.49080734
 C            1.84481121        2.31357120       -1.99556858
 C            2.61692454       -1.08569052       -1.96387498
 C            2.78225717        0.21221437       -2.44123661
 C            1.15364456       -3.06899840       -1.98683134
 C            1.83561244       -1.99268446       -2.68654370
 C           -1.11901915       -2.66536343       -1.15963722
 C           -2.18510381       -1.77141686       -1.30199915
 C           -0.26363872       -2.89519191       -2.23693475
 C           -2.52373652       -1.30085246       -2.56764246
 C           -3.46576182        0.73422178       -1.47599762
 C           -3.06780527        2.09912884       -1.77122968
 C           -3.23957166       -0.04587082       -2.67966610
 C           -0.85928309        2.41293440       -2.80185569
 C           -2.19447197        2.03249787       -2.92889225
 C           -2.51237244        0.79548819       -3.61856729
 C            1.48025696        1.94443187       -3.34752804
 C            2.06444077        0.64280734       -3.62880251
 C            0.07521359        1.88893986       -3.69104367
 C            0.92237411       -1.51685632       -3.71750396
 C           -0.38698995       -2.09421997       -3.44332823
 C           -1.53244873       -1.33429831       -3.62855146
 C           -1.42825026        0.00865805       -4.17947720
 C            1.02304550       -0.20848937       -4.17189261
 C           -0.17738351        0.59930262       -4.31982354
