   70
C70 / DATE: 7/ 1/2024 / Origin: Program Fullerene / C70 from database
 C            1.23989950       -0.17754415        4.35934624
 C            2.47892368       -0.43738248        3.66229677
 C            2.37237295       -1.74788012        3.03988678
 C            0.38577836       -1.34429524        4.19028972
 C            1.00061958       -2.19095468        3.19416781
 C           -0.95680967       -0.86159357        3.94939117
 C            0.45522736        0.97793821        3.97100107
 C           -0.92835619        0.58148299        4.13496053
 C            0.82011855        1.71148234        2.84031291
 C            2.90068306        0.48896598        2.63313844
 C            2.12332857        1.60646472        2.32901759
 C            2.91699386       -1.64429239        1.69375222
 C            3.43816062       -0.30097742        1.53903913
 C            2.20844490       -2.20217851        0.63576961
 C            0.28957307       -2.51767360        2.04778232
 C            1.00776232       -2.85891056        0.90568279
 C           -1.69854742       -1.38710832        2.89229875
 C           -1.06629850       -2.18095685        1.92551339
 C           -2.89155367       -0.74682243        2.56913195
 C           -1.90971556        1.33681254        3.51846173
 C           -3.06234738        0.63459272        2.98638294
 C           -0.17581538        2.36672486        2.10180596
 C           -1.50324648        2.31494187        2.52042152
 C            0.11218323        2.87268133        0.83553605
 C            2.46260285        2.31309156        1.18023361
 C            1.44058794        3.06361728        0.47958920
 C            3.45497004        0.26391744        0.27136943
 C            3.26873734        1.64167440        0.17247495
 C            2.45446171       -1.73651207       -0.65826429
 C            3.16763186       -0.53845760       -0.83481610
 C            1.82240452       -2.36742629       -1.73919663
 C            0.33044749       -3.47188307       -0.13258117
 C            0.82315739       -3.30387223       -1.48645187
 C           -1.73085716       -2.48652942        0.73285284
 C           -1.11576624       -3.35387780       -0.16554183
 C           -3.43939674       -0.87290595        1.22882178
 C           -2.78740587       -1.67725156        0.29987360
 C           -3.54836654        1.38650036        1.84759369
 C           -2.55320999        2.39364931        1.52080264
 C           -3.93111585        0.43600842        0.82195046
 C           -0.89740711        2.95999843       -0.13138959
 C           -2.20170531        2.57518941        0.18696038
 C           -0.56783303        3.18188035       -1.46823703
 C            1.81782211        3.12248816       -0.92288666
 C            2.95767996        2.23809104       -1.11615761
 C            0.82315714        3.19071838       -1.88620875
 C            3.28617058        0.02750033       -2.10034354
 C            3.03842820        1.44994398       -2.25695028
 C            1.89865823       -1.81915047       -3.01734367
 C            2.71169983       -0.64542927       -3.24303475
 C            0.67843453       -1.65513550       -3.79368159
 C           -0.32409135       -3.36136788       -2.37475267
 C           -1.52333780       -3.33426896       -1.55408187
 C           -0.45698055       -2.34550644       -3.40326302
 C           -2.98382521       -1.43684315       -1.06730568
 C           -2.35070608       -2.23934398       -2.00836909
 C           -1.67440054       -1.59912505       -3.12848106
 C           -3.78454326        0.81798891       -0.50103307
 C           -3.01083755        2.01243208       -0.80224241
 C           -3.41921795       -0.18365258       -1.48425488
 C           -1.33311979        2.51515546       -2.50695600
 C           -1.68148148       -0.20523276       -3.21484906
 C           -2.50529326        1.87033485       -2.15790121
 C           -2.69860997        0.48567694       -2.55643619
 C            0.92794728        2.39122966       -3.09816488
 C            2.05546832        1.61014753       -3.31729063
 C            1.89873300        0.32135338       -3.96688760
 C            0.56638458       -0.24366250       -4.10417936
 C           -0.39009951        1.83966714       -3.37861031
 C           -0.53335615        0.47566251       -3.63976561
