   70
C70 / DATE: 7/ 1/2024 / Origin: Program Fullerene / C70 from database
 C            1.33642591       -0.00260541        5.02120212
 C            0.54612292       -1.19737700        4.77505610
 C            1.39678154       -2.14872855        4.10300761
 C            2.56928857       -0.12618702        4.26237086
 C            2.63672135       -1.47174729        3.74566297
 C            2.61670640        0.96924446        3.31806771
 C            0.60166145        1.13121170        4.48728212
 C            1.43808385        1.79834048        3.51815362
 C           -0.68481208       -0.79312427        4.12005845
 C           -0.68233750        0.65646715        4.04080738
 C           -1.16872020       -1.51012373        3.01837414
 C            0.89196644       -2.78199242        2.90501284
 C           -0.43273126       -2.59581640        2.51214402
 C            2.84186777       -1.65561300        2.31926168
 C            1.92670726       -2.69224399        1.88966943
 C            3.03774980        0.74772346        2.00991331
 C            3.03314664       -0.55652910        1.48438351
 C            2.86041243        1.81313484        1.13669922
 C            0.84651881        2.36769067        2.39080788
 C            1.69482293        2.66162139        1.32967779
 C           -1.24261148        1.22263461        2.91098537
 C           -0.50871359        2.12101968        2.11939322
 C           -2.12039715       -0.87873377        2.20118552
 C           -2.26157067        0.51218179        2.30593479
 C           -2.65146211       -1.56038390        1.09770005
 C           -0.77430170       -3.11938774        1.27157606
 C           -1.96640228       -2.65469090        0.59388038
 C            1.53349342       -2.73082274        0.55745418
 C            0.27515853       -3.25230232        0.27323584
 C            2.85421869       -0.74251039        0.11011186
 C            2.10485054       -1.83719486       -0.34996942
 C            3.02046921        1.60490773       -0.28436502
 C            3.14991568        0.30850088       -0.76097060
 C            1.13986208        2.95495879        0.02140322
 C            2.10366425        2.50712198       -0.96292887
 C           -1.05237246        2.50942504        0.88314092
 C           -0.20910661        2.73530146       -0.20837468
 C           -3.04494279        1.20363042        1.40350166
 C           -2.40294808        2.26616886        0.65175795
 C           -3.56357430       -0.92509334        0.25890645
 C           -3.89428392        0.45984378        0.50829764
 C           -3.42920223       -1.09143526       -1.18277672
 C           -1.72599091       -2.73896512       -0.83967378
 C           -0.31701135       -3.01974291       -1.03189121
 C           -2.35393252       -1.82920624       -1.68490595
 C            1.68584897       -1.86891174       -1.67872019
 C            0.38362079       -2.28405214       -1.97373676
 C            3.00799825        0.11697122       -2.13101499
 C            2.38398960       -1.10322807       -2.60048802
 C            1.66311173        2.14994025       -2.22761766
 C            2.41974556        1.19519420       -2.90399677
 C           -0.64116384        2.45289923       -1.51194201
 C            0.30682477        2.29805485       -2.54236294
 C           -2.89865658        2.20480535       -0.70956634
 C           -3.90810213        1.15863177       -0.76176895
 C           -3.81168530        0.16512223       -1.81394189
 C           -2.01243240        2.31374204       -1.77522532
 C           -3.17782782        0.53611829       -2.98676690
 C           -2.43050101        1.78391479       -2.99276851
 C           -1.69560822       -1.39674521       -2.84335194
 C           -0.32685528       -1.67117934       -3.00647021
 C           -2.31641659       -0.42776553       -3.63323591
 C            1.77906577       -0.81669383       -3.89066360
 C            1.91827193        0.61285882       -4.13048191
 C            0.38262804       -1.14813299       -4.08567170
 C           -0.11136794        2.02381122       -3.84582319
 C           -1.49835812        1.70538098       -4.09355641
 C           -1.54329846        0.33600374       -4.59198534
 C            0.65769008        1.09414224       -4.65212333
 C           -0.18571306       -0.06945385       -4.86694084
