   70
C70 / DATE: 7/ 1/2024 / Origin: Program Fullerene / C70 from database
 C            1.10783450       -0.12806416        4.59867296
 C            2.37565847       -0.48464551        4.01704608
 C            2.21893611       -1.79055872        3.38366252
 C            0.25250972       -1.29564724        4.47944597
 C            0.80861853       -2.10409430        3.41262350
 C           -1.09587820       -0.80305347        4.33015067
 C            0.37671537        0.97777142        4.01476740
 C           -1.01485616        0.64735975        4.20883884
 C            0.78916128        1.49906661        2.78313302
 C            2.93112591        0.38410456        3.00461603
 C            2.12763697        1.35392434        2.39137634
 C            2.89034850       -1.71158134        2.10097567
 C            3.69001919       -0.50319657        2.15472142
 C            2.17785125       -1.97650835        0.93177545
 C            0.11496332       -2.20773136        2.20768538
 C            0.82121094       -2.32529200        1.00068290
 C           -1.87741464       -1.26545508        3.20210817
 C           -1.27007858       -1.99833466        2.18521174
 C           -1.95445783        1.03704946        3.18737352
 C           -2.70892938       -0.14867669        2.81931590
 C           -0.16723306        1.95004731        1.85639143
 C           -1.53784282        1.87687291        2.16430525
 C            0.24780708        2.33911075        0.57372161
 C            2.54967870        1.85180982        1.15575697
 C            1.61242314        2.42191191        0.28345559
 C            4.14581166        0.01514088        0.96425674
 C            3.76839629        1.37714694        0.65604333
 C            2.70728632       -1.51749834       -0.27780800
 C            3.85198735       -0.72127134       -0.24768090
 C            1.92014730       -1.56777879       -1.42949539
 C            0.11459047       -2.54940737       -0.18226814
 C            0.75191956       -2.32469336       -1.40760604
 C           -1.94285994       -2.08650694        0.97071260
 C           -1.27837539       -2.63282843       -0.12417916
 C           -3.28582056       -0.17308476        1.55853735
 C           -3.09064227       -1.30637859        0.76957320
 C           -2.47259793        2.09465125        1.16249214
 C           -3.45649879        1.05057918        0.91807740
 C           -0.69482412        2.66963061       -0.41376962
 C           -2.04932645        2.60449542       -0.11962392
 C           -0.30843417        2.77658582       -1.75244318
 C            2.00807511        2.85940017       -0.98096376
 C            1.04182950        2.85333339       -2.05954728
 C            4.10033950        1.54652606       -0.74174568
 C            4.09776749        0.21036278       -1.32862319
 C            3.25169975        2.38328159       -1.55197791
 C            2.11251205       -0.65098260       -2.47422210
 C            1.55427806        1.96930225       -3.09855508
 C            3.18396992        0.23190498       -2.44703693
 C            2.91173711        1.61998032       -2.74007292
 C            1.04657503       -0.36642093       -3.32960158
 C            0.70661202        0.97287795       -3.57528917
 C            0.03666857       -2.45441295       -2.59357096
 C            0.11573765       -1.37440935       -3.55968029
 C           -2.00487968       -2.94716256       -1.26613153
 C           -1.33599231       -2.91391612       -2.54864743
 C           -3.74828214       -1.36984415       -0.45406680
 C           -3.30925653       -2.33994971       -1.43899791
 C           -3.80111365        1.07680125       -0.49320330
 C           -2.97490150        2.09651670       -1.12142773
 C           -4.03928342       -0.12636038       -1.14972267
 C           -1.15974623        2.29396004       -2.74635694
 C           -0.63429726        1.32082375       -3.68785494
 C           -2.52193063        1.91436138       -2.41943763
 C           -1.24125956       -1.03195859       -3.94641474
 C           -2.11869632       -2.07209724       -3.44056277
 C           -3.33313337       -1.69583982       -2.74232737
 C           -3.62553734       -0.28798212       -2.53381525
 C           -1.64036348        0.29579869       -3.89046277
 C           -2.82569595        0.68113363       -3.13231609
