   70
C70 / DATE: 7/ 1/2024 / Origin: Program Fullerene / C70 from database
 C            1.30920275       -0.22667236        4.52093747
 C            2.61201138       -0.48438401        3.93726663
 C            2.56614444       -1.78761816        3.29604123
 C            0.47226933       -1.38850128        4.27807945
 C            1.26367062       -2.37317466        3.55976446
 C           -0.77854599       -0.93036743        3.69085084
 C            0.57237645        0.94994456        4.09558197
 C           -0.72519433        0.51663349        3.60081897
 C            1.24005425        1.96385687        3.42189704
 C            3.14677279        0.46395121        2.97723204
 C            2.56936953        1.72204281        2.86986304
 C            2.99530098       -1.62530055        1.91509478
 C            3.46898010       -0.26179248        1.75890921
 C            2.24130407       -2.20776802        0.89717897
 C            0.64967180       -3.09145171        2.54605018
 C            1.29187259       -3.16074717        1.24188225
 C           -1.33240640       -1.64993414        2.63736081
 C           -0.76186486       -2.86767121        2.28861210
 C           -2.11691139       -0.98859391        1.69224627
 C           -1.27686358        1.14191413        2.48670732
 C           -2.11932042        0.41284868        1.64203624
 C            0.50547322        2.76298727        2.45848333
 C           -0.77098323        2.37597029        2.06785622
 C            2.64829255        2.41595604        1.59695898
 C            1.44285971        3.21142365        1.44245770
 C            3.30139395        0.36448388        0.53035302
 C            3.15149964        1.75524679        0.48368067
 C            2.15954047       -1.57113156       -0.34626077
 C            2.90394240       -0.40965785       -0.56068211
 C            1.23272252       -2.00160952       -1.31297288
 C            0.26173001       -3.50874298        0.28849574
 C           -1.02077326       -3.40327095        0.96975298
 C            0.34519045       -3.04600593       -1.01936105
 C           -2.69520772       -1.72280529        0.65302834
 C           -2.09451934       -2.92031244        0.23706179
 C           -3.63533933       -1.09308683       -0.15881492
 C           -2.82711454        1.07937093        0.63797881
 C           -3.62250133        0.35415736       -0.24238041
 C           -1.30609760        2.98005137        0.93962966
 C           -2.40200418        2.34070582        0.23942743
 C            0.97367526        3.47904638        0.15637259
 C           -0.40341232        3.54521522       -0.05402134
 C            2.97391637        2.36953727       -0.74899638
 C            1.82112528        3.24356133       -0.92701721
 C            2.97241787        0.13613986       -1.83281143
 C            3.11839737        1.57220115       -1.94994346
 C            1.10231290       -1.29568469       -2.51873504
 C            2.01980890       -0.29688144       -2.83619213
 C           -0.07800798       -1.38721805       -3.26062125
 C           -0.79690376       -3.20692821       -1.79935208
 C           -2.07946346       -3.23576310       -1.11656366
 C           -0.96521348       -2.42092803       -3.00296681
 C           -3.90664206       -1.60566037       -1.49132630
 C           -3.07836410       -2.67492046       -1.99830746
 C           -2.39234173       -2.19193426       -3.18518302
 C           -3.61200461        0.71668287       -1.65301152
 C           -3.81994896       -0.49438131       -2.42521342
 C           -2.86002654       -0.84311357       -3.45543854
 C           -2.24761326        2.61607440       -1.17974598
 C           -0.95539493        3.25821488       -1.36995058
 C           -2.69999195        1.67269349       -2.09584894
 C            1.26132536        2.97867819       -2.24441963
 C            2.14578111        2.04360085       -2.91702072
 C            1.56526389        0.88303752       -3.55873619
 C           -0.11582175        2.83668346       -2.39402507
 C           -0.53755077       -0.27437921       -3.96211397
 C           -1.93409457        0.10953376       -3.85425180
 C           -1.95943684        1.43798864       -3.25548472
 C            0.23779970        0.94838803       -3.94554567
 C           -0.61558947        1.98957067       -3.38263206
