   70
C70 / DATE: 7/ 1/2024 / Origin: Program Fullerene / C70 from database
 C            1.65534693        0.00086502        4.50115955
 C            0.84458174       -1.19933533        4.43306637
 C            1.33929573       -2.02814416        3.34360387
 C            2.65535527       -0.08754904        3.45652454
 C            2.48515513       -1.35365886        2.76580432
 C            2.58402339        1.12736244        2.66436480
 C            0.79473556        1.12733272        4.18590294
 C            1.38486956        1.84044848        3.06682770
 C           -0.54467825       -0.78581748        4.39730831
 C           -0.55902814        0.62575048        4.04130366
 C           -1.44094445       -1.62883105        3.76563628
 C            0.40737367       -2.63936153        2.50732104
 C           -0.90569435       -2.72246480        2.97060537
 C            0.66741643       -2.73470929        1.12898824
 C            2.64038990       -1.35328273        1.38991015
 C            1.85837976       -2.20176952        0.60567899
 C            2.85613877        1.02728294        1.30565958
 C            3.19710905       -0.22372560        0.79908672
 C            2.28426976        1.95610557        0.43628268
 C            0.54773619        2.32418829        2.06846718
 C            1.09389439        2.59100223        0.81262312
 C           -1.30381721        1.04883429        2.94165074
 C           -0.82841600        2.11467406        2.17631727
 C           -2.49877142       -1.04170158        2.96771964
 C           -2.30996992        0.22504108        2.42403231
 C           -1.95759379       -3.12797517        2.06752611
 C           -2.98764753       -2.09894559        2.11202078
 C           -0.30234432       -3.27372409        0.26726716
 C           -1.62558790       -3.35431196        0.68102330
 C           -0.08251233       -3.27052883       -1.10219349
 C            2.12338657       -2.26209525       -0.76719732
 C            1.19170551       -2.83263827       -1.62684101
 C            3.58440664       -0.30920416       -0.52506417
 C            3.12368643       -1.44743691       -1.29827484
 C            2.67369837        1.93507867       -0.90542702
 C            3.44896661        0.86951555       -1.36165137
 C            2.01881966        2.75004333       -1.82732459
 C            0.30680300        3.23092623       -0.14408085
 C            0.82403792        3.46161325       -1.41385080
 C           -1.66158763        2.65828218        1.21040113
 C           -1.06970204        3.31729236        0.05913212
 C           -2.92646040        0.56329707        1.21210241
 C           -2.78484722        1.86724017        0.74119498
 C           -3.33835335       -1.77079436        0.74775937
 C           -2.64613083       -2.70594944       -0.12465744
 C           -3.41682115       -0.43960472        0.35969681
 C           -1.12945857       -2.76045340       -1.97935904
 C           -2.32449663       -2.30600397       -1.42125053
 C            0.94204878       -2.23519664       -2.93269060
 C           -0.48466859       -1.99622552       -3.03586523
 C            3.03943486       -1.02235461       -2.68556199
 C            3.29189803        0.40866226       -2.72802236
 C            1.82028699       -1.28493776       -3.42437398
 C            1.81230152        2.28205717       -3.19505369
 C            2.27029598        1.02225586       -3.55005150
 C            1.29651188       -0.00945154       -3.88706056
 C           -0.08072217        3.50624238       -2.54983652
 C            0.46863897        2.65416230       -3.58881836
 C           -1.98019085        3.14334797       -1.06234916
 C           -2.97953409        2.16321317       -0.66858920
 C           -1.46798962        3.12765759       -2.35311425
 C           -3.51900706       -0.19840225       -1.00600048
 C           -2.91991430       -1.15059585       -1.92954633
 C           -3.31546188        1.13606977       -1.53595511
 C           -0.95608653       -0.72465466       -3.34779987
 C           -0.06916622        0.26886972       -3.78030379
 C           -0.49192850        1.59738990       -3.84658927
 C           -1.74276463        1.99191027       -3.22294970
 C           -2.25432510       -0.38850404       -2.97524171
 C           -2.62637596        1.00632517       -2.81102344
