   70
C70 / DATE: 7/ 1/2024 / Origin: Program Fullerene / C70 from database
 C            1.27610047        0.09467533        5.29588509
 C            0.48333224       -1.11517118        5.16769898
 C            1.32222276       -2.14066043        4.57476214
 C            2.55522961       -0.14353815        4.65111756
 C            2.60507695       -1.53906794        4.25491608
 C            2.73539514        0.87358857        3.63067091
 C            0.59859114        1.14674919        4.55747876
 C            1.51465806        1.66125586        3.55849617
 C           -0.75855828       -0.76494617        4.50184254
 C           -0.67932258        0.63236130        4.10554954
 C           -1.31938404       -1.66829880        3.61044422
 C            0.84408813       -2.83058017        3.38867177
 C           -0.49637452       -2.73779697        3.04851736
 C            2.91618780       -1.85885926        2.87202780
 C            1.84024067       -2.68017622        2.33939887
 C            3.36356346        0.52783757        2.44281402
 C            3.46658163       -0.87932095        2.06041483
 C            3.02895063        1.27157248        1.24088750
 C            1.00494909        1.99808795        2.30608531
 C            1.86354466        2.02924269        1.20516747
 C           -1.12749282        0.99805353        2.83779719
 C           -0.37142756        1.89989581        2.08382871
 C           -2.14362842       -1.15419288        2.53061010
 C           -2.05927394        0.18958704        2.18328984
 C           -0.86822768       -2.87616620        1.65407267
 C           -2.09878461       -2.13411180        1.47028267
 C            1.42828372       -2.50758300        1.01180444
 C            0.10576922       -2.79575806        0.65692451
 C            3.23368323       -0.95256082        0.63131924
 C            3.30832077        0.40163148        0.12209638
 C            2.24164646       -1.79418665        0.12437186
 C            2.67101305        0.65762539       -1.07568605
 C            1.33322389        2.36519804       -0.04042294
 C            1.90007296        1.81290931       -1.19605499
 C           -0.87909401        2.33332397        0.86303199
 C            0.01997711        2.81460848       -0.08864138
 C           -2.49260675        0.57104590        0.91351312
 C           -2.10478048        1.81819071        0.44115280
 C           -2.39511572       -1.71820064        0.18747995
 C           -2.85544047       -0.41724888       -0.01032957
 C           -0.32825098       -2.55227587       -0.64897863
 C           -1.68910367       -2.31239570       -0.84439880
 C            1.79858641       -1.55492610       -1.17928620
 C            2.30907800       -0.43743129       -1.84129206
 C            0.58340978       -2.09734633       -1.60501718
 C            1.92138880       -0.18883460       -3.14319923
 C            1.31954263        2.07790137       -2.44234417
 C            1.55988733        1.17668246       -3.48195885
 C           -0.46691582        3.30635531       -1.29052234
 C            0.22558686        2.94351653       -2.51522264
 C           -2.65935713        2.27817930       -0.74385831
 C           -1.89121653        3.21357358       -1.54056757
 C           -3.20903685       -0.04581197       -1.31321401
 C           -3.25804986        1.30983307       -1.64662734
 C           -2.16027311       -2.10295407       -2.12548840
 C           -3.08860388       -1.00328483       -2.32292949
 C            0.13713449       -1.83878525       -2.90850575
 C            0.92848397       -1.05000503       -3.74505878
 C           -1.20840773       -2.05211015       -3.21225135
 C            0.65766271        1.11153832       -4.61737165
 C            0.33696776       -0.29143322       -4.83777007
 C           -0.77821997        2.78747280       -3.56356063
 C           -2.08638050        2.88552341       -2.94030488
 C           -2.98956604        1.75044459       -3.01220461
 C           -0.58514936        1.85485375       -4.57455381
 C           -2.97736754       -0.59315748       -3.71103774
 C           -1.85715262       -1.32039891       -4.29071249
 C           -1.08470235       -0.39012768       -5.08411423
 C           -2.80858862        0.81213363       -4.02016762
 C           -1.66257713        0.93425492       -4.91076863
