   70
C70 / DATE: 7/ 1/2024 / Origin: Program Fullerene / C70 from database
 C            1.60036766        0.18727384        4.80336491
 C            0.78809475       -1.00154689        4.61884991
 C            1.45372027       -1.85203448        3.65126872
 C            2.66773527        0.15198020        3.81809855
 C            2.59239676       -1.11233242        3.12378572
 C            2.58948998        1.36309154        3.03417203
 C            0.76966244        1.33845557        4.50290815
 C            1.49373149        2.16520846        3.55817571
 C           -0.56915085       -0.58055170        4.34131630
 C           -0.54865252        0.85820376        4.12422731
 C           -1.33426326       -1.36830697        3.49990420
 C            0.68424217       -2.60277818        2.76348607
 C           -0.70835067       -2.48083230        2.79255085
 C            1.30059949       -3.05198235        1.59949217
 C            2.82393551       -1.15211399        1.75351773
 C            2.45062000       -2.31602543        1.09659251
 C            2.75670388        1.29035545        1.65429523
 C            2.90388270        0.04230272        1.02158312
 C            2.37544899        2.39740976        0.89671827
 C            0.75353669        2.91870438        2.65994602
 C            1.31278353        3.17566940        1.34455601
 C           -1.15815768        1.40041542        2.98985552
 C           -0.64989541        2.58517839        2.46092962
 C           -2.22784311       -0.72004018        2.56209635
 C           -2.01590656        0.61201156        2.21477094
 C           -1.48783982       -2.70990197        1.58123261
 C           -2.51081506       -1.68148856        1.51417862
 C            0.49790842       -3.44047096        0.45249834
 C           -0.85212515       -3.09980892        0.40737718
 C            2.39606047       -2.34108845       -0.35126138
 C            1.32731485       -3.25024291       -0.72497073
 C            2.97570238       -0.00602559       -0.37631803
 C            2.56440573       -1.15833274       -1.06084872
 C            2.66241801        2.40942377       -0.45882322
 C            3.14483794        1.18748990       -1.06825496
 C            1.67953058        2.97509299       -1.36837139
 C            0.20269004        3.43066663        0.44002049
 C           -1.00036704        2.97284572        1.10852960
 C            0.37377644        3.15922778       -0.91770437
 C           -2.43770974        1.04939700        0.95410547
 C           -1.89081221        2.20344366        0.38794606
 C           -2.89079545       -1.20803070        0.26975609
 C           -3.12683469        0.15926296        0.12567365
 C           -1.44744381       -2.79881214       -0.82216138
 C           -2.57095195       -1.96574459       -0.85657864
 C            0.71087535       -3.08292922       -1.95101093
 C           -0.73735126       -3.04362593       -1.99653513
 C            2.08477228       -1.08267742       -2.37627521
 C            1.19258893       -2.04304158       -2.84376679
 C            2.81000585        1.25166751       -2.47534483
 C            1.91367372        2.38293551       -2.66426844
 C            2.19771447        0.09770247       -3.09585355
 C            0.77691065        1.92233818       -3.42465112
 C            1.05394026        0.56566798       -3.86315440
 C           -0.70442834        2.64116781       -1.65951229
 C           -1.90652433        2.34783508       -0.99229579
 C           -0.50692145        2.22101247       -2.98988187
 C           -3.61389268        0.62498818       -1.09214348
 C           -2.97701264        1.79192511       -1.67643433
 C           -3.13126961       -1.60471257       -2.07989859
 C           -3.83093616       -0.33612173       -2.15737522
 C           -1.10500074       -2.35266121       -3.21876280
 C            0.07491253       -1.62622512       -3.68035534
 C           -0.02547896       -0.28970171       -4.08314787
 C           -2.35034655       -1.75404223       -3.29837025
 C           -1.54122515        1.59703287       -3.67793214
 C           -2.86324918        1.57891654       -3.09876144
 C           -3.47674538        0.30040727       -3.41278827
 C           -1.28601864        0.28408087       -4.25709491
 C           -2.47267445       -0.52655757       -4.05687226
