   70
C70 / DATE: 7/ 1/2024 / Origin: Program Fullerene / C70 from database
 C            1.45576213       -0.06770872        5.24282716
 C            0.58551831       -1.22395891        5.29971944
 C            1.17912393       -2.25031076        4.46659817
 C            2.52024556       -0.35439325        4.29131043
 C            2.27523333       -1.65490701        3.71891465
 C            2.60311080        0.76555036        3.39266266
 C            0.68220278        1.03094376        4.69657888
 C            1.52124787        1.68251209        3.72264986
 C           -0.68086289       -0.86095430        4.68290517
 C           -0.58358755        0.51135951        4.22824112
 C            0.10339086       -2.84476624        3.70743041
 C           -0.99234957       -1.88373408        3.70619274
 C            0.43883238       -3.41507092        2.49497175
 C            2.28971243       -1.81444631        2.32921619
 C            1.64704731       -2.94009929        1.82663828
 C            2.85273072        0.53941268        2.04114168
 C            2.50067593       -0.70471706        1.48354084
 C            2.76812264        1.67103209        1.24439793
 C            0.91603966        2.31631627        2.65076045
 C            1.78324388        2.66556503        1.63266118
 C           -0.96526691        0.81713384        2.92358680
 C           -0.38114402        1.91811082        2.28456133
 C           -1.53359303       -1.50346218        2.47888231
 C           -1.62611928       -0.14386580        2.15154970
 C           -0.57605917       -3.45169950        1.46963199
 C           -1.53933316       -2.44430545        1.44884304
 C            1.42070386       -3.06501880        0.40174451
 C            0.14207137       -3.73887285        0.25107135
 C            2.19401420       -0.79812387        0.10352440
 C            1.71456854       -1.99659942       -0.43917172
 C            2.69199139        1.53731975       -0.19129305
 C            2.32743828        0.31870955       -0.73537017
 C            1.23368051        3.22750061        0.43092340
 C            2.03443818        2.73502326       -0.67365897
 C           -0.87930037        2.31076350        1.03507968
 C           -0.14377413        3.23101575        0.28105681
 C           -2.07496195        0.20988794        0.88087450
 C           -1.81644594        1.49363412        0.38820379
 C           -2.11420823       -2.10743474        0.22478344
 C           -2.52173132       -0.78964990        0.01629584
 C           -0.53722895       -3.57194664       -0.93500939
 C           -1.82916509       -2.91458030       -0.87823032
 C            1.16263815       -2.00333329       -1.72377826
 C            0.16201115       -2.93069272       -2.02243702
 C            1.76012938        0.31043074       -2.01479872
 C            1.32575531       -0.90065953       -2.56089100
 C            1.43008737        2.71137866       -1.91831975
 C            1.49152818        1.53161260       -2.66430115
 C           -0.61753803        3.61178033       -0.96508229
 C            0.31866048        3.53634177       -2.07110317
 C           -2.32938015        1.87778789       -0.85559847
 C           -1.85647208        3.04291918       -1.44922652
 C           -3.08644837       -0.43290499       -1.20296578
 C           -3.02625132        0.95192787       -1.63039345
 C           -2.10024792       -2.42564628       -2.22027212
 C           -0.86509545       -2.57700146       -2.98145231
 C           -2.85661175       -1.27260418       -2.36887793
 C            0.70476698       -0.92461323       -3.80987480
 C           -0.54626379       -1.64574248       -3.95260465
 C            0.97092680        1.54130493       -3.95859142
 C            0.57767229        0.29586919       -4.57500687
 C           -0.45788231        3.46849773       -3.28923277
 C           -1.82642365        3.15410001       -2.90178046
 C           -0.05022929        2.51833981       -4.30133351
 C           -2.89104452        0.96049255       -3.08202115
 C           -2.61621950       -0.40427277       -3.51000075
 C           -1.54414816       -0.67344087       -4.35783656
 C           -0.81982953        0.42150104       -4.97493420
 C           -2.26473329        2.03142514       -3.70840552
 C           -1.23537227        1.78403772       -4.70611768
