   70
C70 / DATE: 7/ 1/2024 / Origin: Program Fullerene / C70 from database
 C            1.41014122       -0.03406760        5.22253677
 C            0.55768276       -1.20886471        5.21615605
 C            1.21062011       -2.22031650        4.40736613
 C            2.54847386       -0.29921740        4.35690398
 C            2.47916721       -1.68499313        3.94111374
 C            2.58624063        0.73398150        3.33319146
 C            0.65979406        1.05383263        4.62669851
 C            1.49332659        1.65277120        3.60396303
 C           -0.68648888       -0.85630319        4.55053958
 C           -0.63784821        0.55153842        4.21702996
 C            0.25052496       -2.68187798        3.41873216
 C           -0.90333950       -1.80140331        3.47331822
 C            0.71564630       -3.05839114        2.16649816
 C            2.87987107       -2.00259981        2.65308466
 C            2.08112096       -2.94548113        1.89559866
 C            2.85052765        0.37821862        2.00480417
 C            3.22785677       -0.93219054        1.72354245
 C            2.35935435        1.19528607        0.97579523
 C            0.86509637        2.21880456        2.51041859
 C            1.60072736        2.30839972        1.34191181
 C           -1.10933463        0.95360212        2.97273486
 C           -0.51604699        2.06535641        2.38110435
 C           -1.42917850       -1.33621884        2.27094937
 C           -1.72743759        0.02285720        2.13406409
 C           -0.17425111       -3.02232322        1.09520328
 C           -1.22659283       -2.09781754        1.12075884
 C            0.27885901       -3.49894532       -0.12656215
 C            2.51268309       -2.80834254        0.51814273
 C            3.04011198       -1.45874115        0.38201018
 C            1.67293169       -3.27702662       -0.47252971
 C            2.27911711        0.71083335       -0.34347818
 C            2.53185123       -0.63384572       -0.61955596
 C            1.75522699        1.52806370       -1.35049882
 C            1.08492447        3.13014422        0.35876362
 C            1.36290571        2.82193216       -1.02382370
 C           -1.11481407        2.59176969        1.24010111
 C           -0.33239925        3.41974539        0.43818042
 C           -2.21546009        0.48404612        0.91246436
 C           -2.13162551        1.84945864        0.63842446
 C           -1.82891199       -1.68992316       -0.07275780
 C           -2.39802073       -0.41303456       -0.14411919
 C           -0.50237458       -3.25031391       -1.32076563
 C           -1.62725142       -2.43672725       -1.23685097
 C            1.65902038       -2.57737892       -1.73763519
 C            1.97815409       -1.22020567       -1.76199295
 C            0.44991270       -3.01767465       -2.39568761
 C            1.32867929        0.96512621       -2.55928916
 C            1.40396370       -0.41648782       -2.74930951
 C            0.66270723        1.75892075       -3.49923328
 C            0.33073790        3.48048345       -1.80387684
 C           -0.78298849        3.75265535       -0.89875939
 C            0.07870800        3.02445730       -3.08776798
 C           -2.73616576        2.33906766       -0.51362973
 C           -2.07250345        3.39348105       -1.26464310
 C           -2.97348430        0.04042085       -1.33503230
 C           -3.27722789        1.39320655       -1.47165174
 C           -2.20657417       -2.01854479       -2.42993105
 C           -2.92842178       -0.76082939       -2.47287291
 C            0.01979115       -2.30784199       -3.49896860
 C            0.64638161       -1.02193811       -3.75836970
 C           -1.40812026       -2.10690364       -3.64174087
 C           -0.25103992        1.14516356       -4.44911199
 C           -2.69004677       -0.15558009       -3.78018126
 C           -0.30512573       -0.23655061       -4.52559362
 C           -1.60019676       -0.88663368       -4.39861606
 C           -1.27837780        3.08191256       -3.60626562
 C           -2.37884206        3.20407225       -2.66939002
 C           -3.20111032        2.01089887       -2.78491365
 C           -1.50220519        1.88809059       -4.40003285
 C           -2.69903306        1.22693692       -3.89666592
