   70
C70 / DATE: 7/ 1/2024 / Origin: Program Fullerene / C70 from database
 C            1.56308882        0.12332394        4.98174494
 C            0.76166701       -1.08693373        5.03564129
 C            1.47271177       -2.12034226        4.30802194
 C            2.64873057       -0.10544437        4.04354990
 C            2.63821984       -1.50634069        3.69096836
 C            2.53149931        0.87316457        2.97675013
 C            0.73061158        1.18039183        4.43762924
 C            1.41198300        1.74097449        3.28563871
 C           -0.58922960       -0.74932491        4.62270271
 C           -0.60659143        0.65352220        4.24034962
 C           -1.30662482       -1.65477437        3.85460536
 C            0.76423323       -2.86497241        3.27876526
 C           -0.61401914       -2.75411576        3.18488202
 C            2.62220214       -1.85339309        2.28660553
 C            1.55343968       -2.80569413        2.06126788
 C            2.69969148        0.48329401        1.64924552
 C            2.82156936       -0.87330595        1.32245700
 C            2.25754154        1.36068647        0.65317158
 C            0.63654972        2.18786693        2.22344396
 C            1.21504309        2.23972892        0.95342654
 C           -1.29142014        1.04204554        3.09086281
 C           -0.74978580        2.06752961        2.31692923
 C           -2.29550469       -1.14629527        2.92260545
 C           -2.24248410        0.18737677        2.51986768
 C           -1.24139303       -2.93250058        1.88767195
 C           -2.47790940       -2.17467518        1.91957399
 C            0.92332099       -2.78783435        0.81574866
 C           -0.46561897       -2.91754379        0.72513892
 C            2.57230970       -1.23321571        0.00812087
 C            1.60797135       -2.21213621       -0.25204561
 C            2.50395937        1.03347115       -0.67980370
 C            2.82596790       -0.29266119       -0.97246678
 C            2.01229482        1.86528516       -1.69003207
 C            0.48921773        2.82416989       -0.08453985
 C            0.95630841        2.73945330       -1.39864915
 C           -1.52086189        2.60265968        1.30068645
 C           -0.84657257        3.15636158        0.14244158
 C           -2.86937788        0.55876330        1.32453426
 C           -2.65364137        1.83537648        0.81417137
 C           -3.05635585       -1.82184389        0.71693594
 C           -3.39080855       -0.42586180        0.48390452
 C           -1.09501688       -2.66057053       -0.49883150
 C           -2.44593890       -2.30648339       -0.50405547
 C            1.05640593       -2.28742503       -1.53048637
 C           -0.32785130       -2.44535529       -1.65054921
 C            2.77571575       -0.73475892       -2.28287645
 C            1.79941577       -1.76198433       -2.59058080
 C            2.37044735        1.59332186       -3.01256831
 C            2.76204261        0.24193349       -3.34765282
 C            1.54711789        2.06758321       -4.10682483
 C            0.13549942        3.22678946       -2.41989388
 C            0.38742150        2.86928933       -3.80072278
 C           -1.79285163        3.10366293       -0.95487150
 C           -2.75523413        2.06768751       -0.62070519
 C           -1.30154698        3.16689261       -2.24427731
 C           -3.38484871       -0.22202925       -0.96002708
 C           -2.96196232       -1.47213854       -1.57077633
 C           -2.93210940        0.98711600       -1.48262776
 C           -0.97502930       -2.08258158       -2.83521290
 C           -2.27101217       -1.43110610       -2.76551724
 C            1.14745125       -1.38776745       -3.83272492
 C            1.85471848       -0.23985217       -4.37553326
 C            1.09688346        0.90126704       -4.85262391
 C           -0.23474729       -1.44642220       -3.91125451
 C           -0.79056196        2.15727342       -4.27876387
 C           -1.78575759        2.20694515       -3.21780545
 C           -2.37825835        1.02758686       -2.76740782
 C           -2.14847588       -0.16299693       -3.45939287
 C           -0.35323662        0.86897862       -4.78307869
 C           -1.00061320       -0.28109198       -4.34488097
