   70
C70 / DATE: 7/ 1/2024 / Origin: Program Fullerene / C70 from database
 C            1.60230766        0.06964473        4.73530380
 C            0.79355601       -1.12336453        4.58094963
 C            1.42280724       -1.96916760        3.58449961
 C            2.68151447        0.00259624        3.76391834
 C            2.55497784       -1.23388842        3.03506828
 C            2.66519303        1.22772836        3.00863594
 C            0.76900032        1.20776330        4.38638399
 C            1.49370994        1.98729205        3.41918526
 C           -0.57014356       -0.70037503        4.35043881
 C           -0.53318197        0.71333830        4.00591253
 C           -1.37969348       -1.52879201        3.59877457
 C            0.61557268       -2.69999282        2.71257781
 C           -0.77475442       -2.62135812        2.84010920
 C            1.16434528       -3.09536220        1.49528551
 C            2.74092119       -1.23685025        1.65630773
 C            2.32289886       -2.37678098        0.98890825
 C            2.95927802        1.19641120        1.64728555
 C            2.84970584       -0.02254368        0.94799003
 C            2.71163491        2.38346323        0.96899927
 C            0.79310955        2.63686336        2.41672225
 C            1.59937314        3.19392104        1.43987231
 C           -1.09642733        1.13844464        2.79785346
 C           -0.47289754        2.14227808        2.03775943
 C           -2.35150708       -0.91542171        2.72221729
 C           -2.10990519        0.36687742        2.22552034
 C           -1.62533207       -2.84929258        1.67622630
 C           -2.76484221       -1.95669025        1.80651370
 C            0.29701792       -3.38184109        0.36236502
 C           -1.04287167       -3.04135555        0.42388963
 C            2.25192582       -2.37796975       -0.44994500
 C            1.04491648       -3.09131948       -0.83893724
 C            2.71340577       -0.02021619       -0.45790627
 C            2.59905348       -1.23434630       -1.15298345
 C            2.66728262        2.39134083       -0.47294576
 C            2.55192138        1.18939678       -1.15113639
 C            0.98144236        3.81310823        0.29991369
 C            1.79247044        3.47754092       -0.85641937
 C           -1.00688001        2.47806896        0.78016441
 C           -0.38281517        3.44739634       -0.00080008
 C           -2.64563434        0.71647784        0.98536376
 C           -1.98881553        1.67001101        0.19658959
 C           -3.43446053       -1.57511903        0.66422811
 C           -3.57080850       -0.15410701        0.41062732
 C           -1.70275053       -2.59456645       -0.72700986
 C           -3.01977009       -2.15570586       -0.59517040
 C            0.38431839       -2.66980231       -1.98311545
 C           -0.97711706       -2.32231957       -1.90586674
 C            2.27913370       -1.22616809       -2.50821688
 C            1.18752610       -2.08124330       -2.95103736
 C            2.02330341        1.19342775       -2.44600396
 C            2.13839267        0.03466147       -3.20309803
 C            0.88679346        3.25261039       -1.95682870
 C           -0.47235066        3.35570879       -1.44268110
 C            1.15846699        2.22687284       -2.85107776
 C           -2.29402538        1.81251513       -1.17286821
 C           -1.44497517        2.54320746       -2.00979015
 C           -3.90190935       -0.03039185       -0.98845112
 C           -3.60022014       -1.31433497       -1.61348306
 C           -3.24699341        0.99173785       -1.76940928
 C           -1.60034945       -1.66160628       -2.98648865
 C           -2.83281886       -1.04176257       -2.80155731
 C           -2.94245414        0.38537455       -3.05039404
 C            0.57872770       -1.46895256       -4.10304704
 C            1.24728226       -0.19598889       -4.32665009
 C           -0.84445001       -1.22725925       -4.07423783
 C            0.14933463        1.95645827       -3.76735879
 C           -1.22453097        2.09994410       -3.31728038
 C           -1.98756927        0.98363723       -3.85427032
 C            0.23072186        0.78815116       -4.61539478
 C           -1.06008833        0.12198669       -4.57049987
