   70
C70 / DATE: 7/ 1/2024 / Origin: Program Fullerene / C70 from database
 C            1.36395808       -0.09600640        4.09087833
 C            2.46496262       -0.31149280        3.17217279
 C            2.27939410       -1.61533029        2.54962818
 C            0.52065679       -1.27728280        4.05665150
 C            1.02202237       -2.15836862        3.01483470
 C           -0.85966395       -0.83778585        3.98312140
 C            0.51644124        1.06332685        3.90363330
 C           -0.84662961        0.59219516        3.71735091
 C            0.98063512        2.10346508        3.11782762
 C            2.92630534        0.74331483        2.38617173
 C            2.24712815        1.96609670        2.40436819
 C            3.71259079        0.42626974        1.28048453
 C            2.64962139       -1.76672980        1.22028745
 C            3.66884749       -0.93604244        0.77655863
 C            1.71652888       -2.27218868        0.29939531
 C            0.12490179       -2.67903787        2.09340953
 C            0.51914137       -2.83881019        0.76170578
 C           -1.75534265       -1.62946218        3.28338964
 C           -1.23200721       -2.67795146        2.42008619
 C           -2.82954688       -0.98713436        2.55184679
 C           -1.62712881        1.10020736        2.67616942
 C           -2.73567646        0.36929717        2.24200084
 C            0.05272448        2.78612824        2.23617775
 C           -1.18168991        2.20812176        1.94080958
 C            2.14311896        2.74929571        1.18018375
 C            0.83518018        3.38140913        1.16906206
 C            3.70229465        1.30185046        0.12105394
 C            2.69015644        2.24513615        0.00272755
 C            3.99764862       -0.89851435       -0.62666153
 C            4.07376717        0.50089580       -1.02360311
 C            1.96812469       -2.19894320       -1.08527309
 C            3.11712232       -1.56689840       -1.55684604
 C            0.95654694       -2.50067449       -2.00290065
 C           -0.38197428       -3.37830350       -0.14976444
 C           -0.20669196       -3.11627913       -1.56215503
 C           -2.22841552       -2.93563151        1.39446514
 C           -3.27016281       -1.92783371        1.53311252
 C           -1.80785487       -3.32703652        0.13289029
 C           -3.92300344       -1.44364650        0.40687191
 C           -3.54581635        0.88596871        1.23929079
 C           -4.24066419       -0.02863749        0.34677640
 C           -1.86703654        2.61756668        0.79163849
 C           -3.06066743        1.99398624        0.44256650
 C            0.22305420        3.63713646       -0.04298343
 C           -1.18699066        3.32253016       -0.20177766
 C            2.00335786        2.40109978       -1.21187945
 C            0.90003355        3.25281768       -1.26879769
 C            3.31581145        0.64371149       -2.24512015
 C            3.01548136       -0.69993144       -2.71415258
 C            2.33369925        1.62689278       -2.33576665
 C            0.91011705       -1.82849440       -3.22667140
 C            1.95003305       -0.87602945       -3.58115418
 C           -0.36425129       -1.29204712       -3.68002206
 C           -1.47884529       -2.64431708       -2.08465060
 C           -2.48128645       -2.80916444       -1.04837700
 C           -3.48072030       -1.85406963       -0.91780053
 C           -1.48504343       -1.50912278       -2.88902524
 C           -4.02080397        0.42215800       -1.01692375
 C           -3.29714568        1.67272396       -0.95800347
 C           -3.43878076       -0.67210566       -1.76405148
 C           -2.31021820       -0.43097301       -2.54378827
 C           -1.40142419        2.95341636       -1.59077206
 C           -0.12314427        3.03875279       -2.27653874
 C           -2.27833558        1.90994814       -1.87205778
 C           -1.87561512        0.89043206       -2.74401973
 C            1.45447196        1.56696304       -3.41738191
 C            1.29704777        0.30491156       -4.11919717
 C           -0.12672930        0.02823457       -4.22054657
 C            0.13775495        2.17091906       -3.32051139
 C           -0.84137507        1.14509788       -3.64042465
