   70
C70 / DATE: 7/ 1/2024 / Origin: Program Fullerene / C70 from database
 C            1.69745848       -0.00454506        4.43002922
 C            0.86468071       -1.19319720        4.41701752
 C            1.33129762       -2.06577084        3.35128054
 C            2.63051325       -0.10799219        3.32421813
 C            2.44363253       -1.39776595        2.69732296
 C            2.48221605        1.07100757        2.49767018
 C            0.83825635        1.13640999        4.17100265
 C            1.37654164        1.85034126        3.02771345
 C           -0.51970785       -0.76344283        4.39588633
 C           -0.52923148        0.66051428        4.09223667
 C           -1.43761495       -1.58276421        3.76232500
 C            0.38491745       -2.73193360        2.56725156
 C           -0.94578168       -2.71563366        2.99176291
 C            0.69214902       -3.02595066        1.22605300
 C            2.52379054       -1.47793788        1.31885194
 C            1.90252670       -2.54876481        0.69902145
 C            2.57592511        0.93074372        1.11763120
 C            2.80020771       -0.33139601        0.56410836
 C            1.99811563        1.90738410        0.31815026
 C            0.48748791        2.41502393        2.12017828
 C            0.94124267        2.67125919        0.82732492
 C           -1.32790128        1.14083315        3.05653318
 C           -0.88293482        2.24488786        2.32456064
 C           -2.49135862       -0.97249395        2.97409522
 C           -2.33646821        0.33331898        2.52057930
 C           -1.99608745       -3.07357947        2.06469106
 C           -2.95472300       -1.97961946        2.03938656
 C           -0.29978440       -3.53971693        0.36781902
 C           -1.63535127       -3.37163326        0.70034850
 C           -0.03252997       -3.65817424       -0.98982789
 C            2.25761636       -2.81596602       -0.61249082
 C            1.32775148       -3.53206510       -1.45095822
 C            2.88078129       -0.45097105       -0.82791192
 C            2.82134394       -1.72902079       -1.39584338
 C            2.23009085        1.87188337       -1.05094941
 C            2.67418684        0.67590707       -1.63610431
 C            1.72160299        2.90959185       -1.82740471
 C            0.12603041        3.40170015       -0.03931168
 C            0.54201178        3.60980402       -1.35494146
 C           -1.76207448        2.83374376        1.42420235
 C           -1.22255538        3.55044785        0.28025871
 C           -2.92735854        0.70255477        1.31187912
 C           -2.88457905        2.04275409        0.95200828
 C           -3.15722248       -1.59749568        0.65339128
 C           -2.45896697       -2.55699403       -0.17902578
 C           -3.09065592       -0.25883790        0.30849243
 C           -0.88944157       -2.93023332       -1.91711747
 C           -1.91216385       -2.14795426       -1.39701751
 C            1.29726863       -2.87661261       -2.74425508
 C            2.36839245       -1.89796676       -2.76899775
 C           -0.06045510       -2.41312876       -2.98256524
 C            2.62585847        0.50446319       -3.02108616
 C            2.18044549       -0.76838131       -3.54399551
 C            1.58246307        2.75136947       -3.25871849
 C            1.98805014        1.50214955       -3.85679381
 C           -0.44270880        3.58410879       -2.43350285
 C            0.17785459        2.94074444       -3.57241247
 C           -2.20959222        3.46623398       -0.77922285
 C           -3.13072227        2.40127785       -0.43265959
 C           -1.74449848        3.22404546       -2.12721626
 C           -2.79159926        0.06652789       -1.01210486
 C           -2.00790122       -0.80154330       -1.77870269
 C           -3.00614461        1.36557796       -1.43904132
 C           -2.20472680        1.89534348       -2.52142541
 C           -0.23799629       -1.10948728       -3.42848274
 C            0.84847208       -0.52129252       -4.07005802
 C            0.79687115        0.87731280       -4.41992794
 C           -0.34180931        1.65223154       -3.98851587
 C           -1.20976951       -0.29405630       -2.82321296
 C           -1.33563430        1.05282190       -3.21347975
