   70
C70 / DATE: 7/ 1/2024 / Origin: Program Fullerene / C70 from database
 C            1.20956906        0.03034534        4.29874023
 C            2.51148328       -0.20672708        3.71890640
 C            2.57173653       -1.61075008        3.36239748
 C            0.39168064       -1.15391247        4.07254750
 C            1.21751766       -2.13886509        3.41347438
 C           -0.82635497       -0.72816168        3.41832778
 C            0.45345091        1.16487069        3.82272703
 C           -0.89964872        0.71072611        3.55430396
 C            1.03039440        2.05357880        2.91964378
 C            2.89991879        0.56321249        2.54920035
 C            2.09040109        1.61520301        2.11177193
 C            3.29845844       -1.71795668        2.11008582
 C            3.42289459       -0.37181318        1.56819134
 C            2.94496438       -2.74650432        1.25191138
 C            0.73610591       -2.80347585        2.28977344
 C            1.68970389       -3.43484797        1.50058866
 C           -1.17114361       -1.29081098        2.20049038
 C           -0.48403219       -2.40639972        1.70802542
 C           -2.02506583       -0.58898794        1.35925897
 C           -1.64442713        1.44323184        2.63701801
 C           -2.30463277        0.76901222        1.59739582
 C            0.18788843        3.04212272        2.43487037
 C           -1.23816165        2.75894930        2.43218442
 C            0.49584422        3.69199029        1.17818443
 C            2.13514893        1.98465056        0.75822461
 C            1.42228722        3.11036492        0.32283214
 C            3.14953883       -0.13557404        0.22558077
 C            2.79031008        1.15006513       -0.16151488
 C            2.99199706       -2.50833980       -0.17656544
 C            2.90791220       -1.20289194       -0.64758758
 C            1.28774495       -4.04912161        0.26082329
 C            2.15749784       -3.52481048       -0.78521700
 C           -0.91324051       -2.98524693        0.50193829
 C           -0.07229191       -3.86285153       -0.18779661
 C           -2.58790492       -1.24903104        0.27309032
 C           -2.00502663       -2.43801378       -0.18802374
 C           -3.57223398       -0.60142208       -0.46592539
 C           -3.02415391        1.50945851        0.64576733
 C           -3.63999851        0.84265058       -0.40704423
 C           -1.83687734        3.52860168        1.36786038
 C           -0.76191046        4.17262407        0.62984203
 C           -2.67796037        2.83932793        0.41831513
 C           -1.02206454        3.99293459       -0.78795298
 C           -2.24585247        3.21756421       -0.91646523
 C            1.34114030        3.41279438       -1.03575406
 C            0.04388621        3.71012243       -1.62550516
 C            2.72812609        1.41392547       -1.52259255
 C            2.07062058        2.61108224       -1.99042196
 C            2.30624647       -0.95814324       -1.88768689
 C            2.36471277        0.32804160       -2.41230825
 C            1.30327686       -3.15328538       -1.89711292
 C            0.01132010       -3.75791805       -1.63032440
 C            1.34284448       -1.84648982       -2.38042729
 C           -2.22789689       -2.86264439       -1.50266311
 C           -1.08776084       -3.26173728       -2.29899155
 C           -3.79275502       -0.96361862       -1.85097798
 C           -3.05936656       -2.07995018       -2.39391784
 C           -3.39060791        1.33229044       -1.75597080
 C           -2.37969135        2.27171585       -1.92898566
 C           -3.46489472        0.20217519       -2.65480477
 C           -0.15426553        2.77620109       -2.71803206
 C            1.14594111        2.22592195       -3.04641345
 C            1.26557035        0.79405914       -3.23744600
 C           -1.25974680        1.92992499       -2.70186823
 C            0.23044060       -1.35225272       -3.07153682
 C           -0.88180837       -2.17448695       -3.23678745
 C           -2.18345377       -1.56823194       -3.44152878
 C           -2.28828409       -0.12293280       -3.42928050
 C            0.11528702        0.01969211       -3.30328666
 C           -1.14034801        0.63877579       -3.23557536
