   70
C70 / DATE: 7/ 1/2024 / Origin: Program Fullerene / C70 from database
 C            1.25196175       -0.09666470        4.64005198
 C            2.57382289       -0.25858379        4.06544224
 C            2.62313153       -1.56909215        3.44561391
 C            0.44782879       -1.24619357        4.24532885
 C            1.27223194       -2.10742491        3.42901025
 C           -0.79045979       -0.74979804        3.68838370
 C            0.49016749        1.09880237        4.32741115
 C           -0.85518923        0.67008651        3.98467843
 C            1.08707600        2.12698970        3.60246044
 C            3.04313859        0.70857460        3.08880938
 C            2.37117064        1.91461706        2.94294031
 C            3.32473271       -1.43930068        2.17993289
 C            3.45077740       -0.01797298        1.89590975
 C            2.95166972       -2.28563495        1.15061826
 C            0.77607994       -2.59356294        2.22319077
 C            1.70810047       -3.02410123        1.29020565
 C           -1.20859297       -1.19888778        2.43721561
 C           -0.50055515       -2.21427033        1.77645010
 C           -2.16567455       -0.45557343        1.74334005
 C           -1.64258913        1.47456048        3.17648485
 C           -2.45386998        0.84391460        2.15133006
 C            0.27010752        2.95613693        2.72887312
 C           -1.08261950        2.68838317        2.59660068
 C            2.29621969        2.52236790        1.62700828
 C            1.04925546        3.26569469        1.54246513
 C            3.09589264        0.47458818        0.63664519
 C            2.73540985        1.82029180        0.50729049
 C            2.97198082       -1.78221424       -0.20860283
 C            2.89454150       -0.41514794       -0.42955958
 C            1.26291716       -3.35862018       -0.03874671
 C            2.11964385       -2.65928668       -0.98305954
 C           -0.95584915       -2.65939662        0.52531129
 C           -0.09379680       -3.39194328       -0.30752271
 C           -2.56458574       -0.86217931        0.47405634
 C           -2.11879251       -2.09154657       -0.01096188
 C           -3.17308322        0.06324555       -0.38693540
 C           -2.71758032        1.84690451        1.14231401
 C           -1.71846658        2.89039212        1.30745349
 C           -3.03025949        1.42833121       -0.14155624
 C            0.42803456        3.38341106        0.29939482
 C           -0.96742015        3.28259481        0.19959648
 C            2.37622946        2.31423619       -0.74035509
 C            1.22282725        3.19645420       -0.83119509
 C            2.35972062        0.04171612       -1.63434821
 C            2.32005442        1.41030950       -1.87018900
 C            1.53767974       -2.19048824       -2.15598575
 C            1.68419643       -0.83901405       -2.49472868
 C           -0.42559633       -3.55183087       -1.64551498
 C            0.42684783       -2.89549469       -2.62454098
 C           -2.65659384       -2.59963983       -1.19011383
 C           -1.79827628       -3.37468532       -2.05465811
 C           -3.58014468       -0.33555682       -1.65446556
 C           -3.43771471       -1.72371066       -2.04044581
 C           -3.20515772        0.48326763       -2.79446448
 C           -2.70514861        2.27281146       -1.19950538
 C           -1.57166236        3.17204318       -1.05283759
 C           -2.69962816        1.75596068       -2.55867408
 C            0.61705813        3.00228359       -2.13531120
 C            1.36397098        1.95521790       -2.81687040
 C           -0.76202686        3.05728368       -2.25339231
 C           -1.44688350        2.16428065       -3.17715068
 C            0.98984537       -0.33161327       -3.59459354
 C            0.71175929        1.09101604       -3.68197522
 C           -0.71369065        1.25046450       -3.92746579
 C           -0.42965661       -2.32367341       -3.64801046
 C           -1.79247249       -2.74193033       -3.36387632
 C           -2.85328687       -1.75478925       -3.37391233
 C           -2.54336054       -0.38710492       -3.75148335
 C           -0.17924702       -1.03369255       -4.09441227
 C           -1.26615094       -0.06661203       -4.20439659
