   70
C70 / DATE: 7/ 1/2024 / Origin: Program Fullerene / C70 from database
 C            1.40327183        0.00897187        4.91668149
 C            0.64644413       -1.16215088        4.52999690
 C            1.38014861       -1.86311052        3.48618102
 C            2.65188086       -0.02029526        4.18255727
 C            2.61170492       -1.13672321        3.25220111
 C            2.85096035        1.30311992        3.63519175
 C            0.65781237        1.17181756        4.45995250
 C            1.53936014        1.94524734        3.61683160
 C           -0.69534463       -0.71410758        4.22107711
 C           -0.59155200        0.70060098        3.90036961
 C           -1.43156993       -1.50507604        3.36335612
 C            0.65445027       -2.35719445        2.40558473
 C           -0.71510529       -2.50495048        2.58582763
 C            1.15367737       -2.21325398        1.10194138
 C            3.03191452       -0.91822479        1.94661649
 C            2.38830718       -1.57805067        0.89546148
 C            3.63748873        1.40691496        2.49935990
 C            3.81022597        0.21314857        1.67983144
 C            3.35453008        2.49725505        1.59001746
 C            1.05852971        2.45771485        2.41355195
 C            1.99298568        2.99537790        1.53625526
 C           -0.98487572        1.13324959        2.63106460
 C           -0.18933612        2.04173037        1.91596808
 C           -2.31570975       -0.85001925        2.42259920
 C           -1.98471729        0.41648935        1.96181017
 C           -1.54207212       -2.80585071        1.44505823
 C           -2.65032863       -1.86358556        1.45610928
 C            0.35876465       -2.59961660        0.00120738
 C           -0.94421061       -3.07842588        0.22306820
 C            0.77460127       -2.30238007       -1.30811729
 C            2.85802941       -1.38641848       -0.39784866
 C            2.00741823       -1.70698247       -1.52377764
 C            4.01314116        0.64752348        0.30709659
 C            3.72187531        2.06639814        0.25249898
 C            3.56004559       -0.15748298       -0.72451002
 C            1.65062716        3.15344676        0.14247648
 C            2.69029626        2.53126104       -0.65636478
 C           -0.58740977        2.42234360        0.62934600
 C            0.34455519        2.96454721       -0.26130295
 C           -2.33887018        0.77155539        0.65795083
 C           -1.79497898        1.93542874        0.11576891
 C           -3.15424657       -1.48445288        0.22666680
 C           -3.03086888       -0.14161718       -0.16576306
 C           -1.82258585       -3.19332716       -0.85163586
 C           -3.07506400       -2.46217319       -0.75111435
 C           -0.15984158       -2.25465061       -2.34334836
 C           -1.33702728       -2.97151484       -2.19284422
 C           -0.05223416       -1.24711556       -3.31587484
 C            2.08167767       -0.60661439       -2.46900897
 C            2.85906449        0.44953855       -1.84761992
 C            2.29700783        1.72101605       -1.72008633
 C            0.93401422       -0.27356583       -3.17259876
 C            0.13702618        2.76856289       -1.61501284
 C            1.05068659        1.96247718       -2.30514684
 C            0.57728757        1.07233679       -3.27184104
 C           -2.19421638        2.35041400       -1.15200090
 C           -1.17090379        2.84049633       -2.05704903
 C           -3.37231105        0.22401288       -1.47927920
 C           -3.09248443        1.51425885       -1.92470294
 C           -3.51601342       -2.14783951       -2.08441005
 C           -2.49897125       -2.64474481       -2.99803266
 C           -3.73851173       -0.75820698       -2.40871414
 C           -1.08434910       -1.00915816       -4.22140600
 C           -2.36177731       -1.66783711       -4.05337686
 C           -3.34231628       -0.62420717       -3.79969904
 C           -0.56595483        1.41756644       -3.98914772
 C           -1.47882653        2.36755180       -3.38804112
 C           -2.78797799        1.74793227       -3.33019734
 C           -1.37180259        0.36520072       -4.58406116
 C           -2.76544545        0.62541781       -4.24359904
