   70
C70 / DATE: 7/ 1/2024 / Origin: Program Fullerene / C70 from database
 C            1.25672613       -0.03988616        4.17532646
 C            2.47885675       -0.25027512        3.42210023
 C            2.45585825       -1.63436771        2.97006565
 C            0.41508796       -1.21041052        3.96648187
 C            1.06722250       -2.04966972        2.99028404
 C           -0.91568871       -0.74852386        3.67485874
 C            0.45455064        1.13960141        3.91117430
 C           -0.91725746        0.70269638        3.73762775
 C            0.95607865        2.12727277        3.08134356
 C            2.94758119        0.74519061        2.56286505
 C            2.25403704        1.94938676        2.44352138
 C            3.86813196        0.40070570        1.57801388
 C            3.23388936       -1.99297690        1.88556098
 C            4.14804476       -1.00506333        1.34354804
 C            2.59007436       -2.64817707        0.76006956
 C            0.42058407       -2.32412967        1.78381060
 C            1.19292680       -2.68068465        0.67628698
 C           -1.63554278       -1.34539987        2.64888330
 C           -0.93901146       -2.00371046        1.61907072
 C           -2.84850163       -0.74093756        2.35898998
 C           -1.76788905        1.37644798        2.86557238
 C           -2.93684757        0.70121408        2.53408082
 C            0.06784676        2.76518039        2.12403165
 C           -1.22129275        2.27500199        1.93494810
 C            2.21059464        2.62781784        1.15750325
 C            0.85880818        3.13657215        0.96611435
 C            3.81794951        1.06627477        0.28381770
 C            2.90900497        2.10001959        0.07297013
 C            4.23249837       -1.21637754       -0.09013661
 C            3.37123881       -2.33188806       -0.42435695
 C            4.00458726        0.05647934       -0.74904927
 C            2.72711888       -2.31626190       -1.64701144
 C            0.58840624       -2.84762529       -0.56735527
 C            1.37975526       -2.83891233       -1.71729644
 C           -1.54722215       -2.19039558        0.36450058
 C           -0.79523500       -2.72321031       -0.69507476
 C           -3.54360778       -1.08037167        1.14320019
 C           -2.88856291       -1.81541084        0.16614319
 C           -3.78131858        1.22578547        1.48652942
 C           -4.30240411        0.09339805        0.74170455
 C           -1.84526824        2.47717550        0.69576663
 C           -3.18718616        2.13602913        0.53695665
 C            0.28473386        3.08083713       -0.29683178
 C           -1.08436057        2.83362604       -0.42504259
 C            2.43404120        2.32788326       -1.21602625
 C            1.12101418        2.92379202       -1.39919447
 C            3.21029160        0.09717684       -1.89219424
 C            2.74026420       -1.09552385       -2.44633090
 C            2.59606399        1.29791552       -2.23237449
 C            0.82147494       -2.33746116       -2.95517718
 C            1.51898104       -1.09453156       -3.24326782
 C           -1.34399449       -2.81415867       -1.97538693
 C           -0.54902278       -2.38129319       -3.10907899
 C           -3.42022631       -1.76803789       -1.11931650
 C           -2.68766128       -2.34460712       -2.21747432
 C           -4.31757870        0.45859169       -0.66292284
 C           -3.68601636        1.76740631       -0.77722867
 C           -4.01711798       -0.52808899       -1.59243634
 C           -1.63840050        2.73371891       -1.70153667
 C           -2.91479390        2.06686221       -1.89034979
 C            0.58374874        2.42654160       -2.65450490
 C            1.39760863        1.29378249       -3.05857163
 C            0.79050518        0.08439385       -3.38683148
 C           -0.78808141        2.36038056       -2.81647277
 C           -1.22111695       -1.21875446       -3.65439507
 C           -2.61781555       -1.34556414       -3.27670786
 C           -3.34116322       -0.17041102       -2.82750871
 C           -2.74202712        1.07726223       -2.94516253
 C           -0.59473313        0.02453767       -3.57737577
 C           -1.36924030        1.17613992       -3.42374044
