   70
C70 / DATE: 7/ 1/2024 / Origin: Program Fullerene / C70 from database
 C            1.31730235       -0.06576210        4.37968818
 C            2.60441567       -0.38813763        3.80731054
 C            2.53568263       -1.74884470        3.29980766
 C            0.46073899       -1.23312030        4.22553040
 C            1.14631724       -2.16946635        3.36458679
 C           -0.84267281       -0.75675616        3.82422014
 C            0.58590381        1.06943308        3.84921024
 C           -0.81285666        0.69239250        3.89590478
 C            1.07108145        1.74156511        2.72451218
 C            3.11232406        0.44603936        2.73939627
 C            2.41364892        1.58652891        2.34372072
 C            3.21478124       -1.78186306        2.01420456
 C            3.64328722       -0.42780581        1.70680477
 C            2.67297899       -2.55520654        1.00339647
 C            0.52663090       -2.61147474        2.19847773
 C            1.33431379       -3.09879816        1.17740917
 C           -1.48832163       -1.34735192        2.74436096
 C           -0.79285095       -2.23570343        1.90664973
 C           -2.63400648       -0.71818583        2.26478528
 C           -1.71332422        1.39572159        3.11580166
 C           -2.77459791        0.65848051        2.45378020
 C            0.16097660        2.36512721        1.85763613
 C           -1.19814590        2.34602209        2.14358692
 C            0.57752620        2.80511950        0.60501363
 C            2.86440008        2.21669064        1.18852142
 C            1.93502266        3.00375062        0.40624977
 C            3.62879317        0.04059426        0.39425074
 C            3.63405079        1.42264687        0.24335522
 C            2.77352134       -2.08944454       -0.36709680
 C            3.08568015       -0.75963733       -0.62591418
 C            0.77533737       -3.29662421       -0.14130135
 C            1.69777212       -2.71612769       -1.10761808
 C           -1.38512087       -2.65914453        0.70718267
 C           -0.58865270       -3.13501522       -0.34139675
 C           -3.37401270       -1.34330688        1.27212079
 C           -2.72885226       -2.36793718        0.47285903
 C           -4.18743729       -0.52944888        0.38557577
 C           -3.22904436        1.49060080        1.35368427
 C           -2.14407125        2.40713850        1.04217830
 C           -3.92951116        0.89817547        0.31680096
 C           -0.30525040        2.74470731       -0.48751069
 C           -1.66634985        2.48581344       -0.26461823
 C            0.16838160        2.91145423       -1.79825623
 C            2.45935649        3.05979576       -0.93903002
 C            3.44449431        1.99524920       -1.06801633
 C            1.53899621        2.92471643       -2.04328032
 C            2.64796114       -0.18561348       -1.82822723
 C            2.99788541        1.12752947       -2.13340978
 C            2.09898697        1.92554015       -2.94022399
 C            1.17386104       -2.07960142       -2.22559536
 C            1.68879130       -0.83916446       -2.61764099
 C           -1.02356073       -3.00078941       -1.65690471
 C           -0.10096854       -2.45918540       -2.64153816
 C           -3.21650462       -2.24068215       -0.89247385
 C           -4.07353244       -1.07526791       -0.95463395
 C           -2.34475051       -2.47381317       -1.94189986
 C           -3.56265736        1.21450210       -1.05210615
 C           -2.48430529        2.05784659       -1.31545502
 C           -3.71372508        0.00785041       -1.85035052
 C           -0.65919127        2.58398004       -2.86578403
 C           -1.98915222        2.07071446       -2.61179583
 C            1.24170478        1.27594013       -3.80977126
 C            1.10930093       -0.16875132       -3.69910104
 C           -0.09538508        1.81782424       -3.96564097
 C           -0.85876567       -1.61324039       -3.54584117
 C           -2.20775529       -1.48250532       -3.00402411
 C           -2.80443084       -0.22144131       -2.87911579
 C           -2.18200192        0.88963824       -3.44119092
 C           -0.23848274       -0.51698433       -4.12122987
 C           -0.99195894        0.71307403       -4.25058049
