   70
C70 / DATE: 7/ 1/2024 / Origin: Program Fullerene / C70 from database
 C            1.56528146        0.10002784        4.99592715
 C            0.77371434       -1.11637281        4.97274171
 C            1.54741583       -2.12319366        4.27398593
 C            2.67310160       -0.07543244        4.06999230
 C            2.70235990       -1.46308630        3.67835821
 C            2.54664126        0.92983501        3.03307976
 C            0.73617247        1.17497574        4.48410835
 C            1.46218147        1.81827589        3.40768459
 C           -0.55185486       -0.78259936        4.47685491
 C           -0.57573875        0.63961659        4.17593829
 C           -1.19683502       -1.66017761        3.61684998
 C            0.90059971       -2.90100309        3.23181157
 C           -0.46995151       -2.78783076        3.04274501
 C            2.70460646       -1.78090832        2.26471201
 C            1.76631223       -2.86786691        2.06864830
 C            2.66823299        0.58007705        1.68613151
 C            2.75210187       -0.76746743        1.30133308
 C            2.24591269        1.51553287        0.74436886
 C            0.72467734        2.38101392        2.37703504
 C            1.34368164        2.50842941        1.13980261
 C           -1.19267044        1.09228105        3.01096776
 C           -0.65966396        2.22244035        2.39062969
 C           -2.05673644       -1.12196686        2.57803631
 C           -1.99824054        0.22803502        2.25784627
 C           -1.00919804       -3.02263255        1.71500684
 C           -2.09520374       -2.08821934        1.50144585
 C            1.21975663       -3.00800574        0.80239290
 C           -0.14771138       -3.26906622        0.64994800
 C            2.43859990       -1.12133937       -0.01868584
 C            1.88934434       -2.38675639       -0.24528375
 C            2.36934957        1.21234356       -0.60650392
 C            2.30677559       -0.12491048       -0.99521297
 C            2.09759009        2.21411676       -1.53062935
 C            0.70475596        3.27024230        0.16627099
 C            1.27561988        3.33056691       -1.09995862
 C           -1.38431409        2.80278590        1.36080131
 C           -0.66164018        3.50923407        0.31594008
 C           -2.44978023        0.64041995        1.00157664
 C           -2.39581493        1.99534440        0.70422791
 C           -2.30962598       -1.64707600        0.20455206
 C           -2.56357672       -0.29200732       -0.03983342
 C           -0.67712066       -3.20171519       -0.64118878
 C           -1.84272283       -2.44251132       -0.83682652
 C            1.53450441       -2.75806217       -1.52959862
 C            0.22544169       -3.35142237       -1.69160933
 C            1.86098935       -0.46353429       -2.27990898
 C            1.69729800       -1.80278270       -2.60335909
 C            1.67999385        1.85125579       -2.87140084
 C            1.35662655        0.52330527       -3.13423527
 C            0.46880436        3.75534907       -2.23045887
 C            0.82467051        2.91737891       -3.36265262
 C           -1.52915832        3.52151156       -0.84909901
 C           -2.48513806        2.43561947       -0.67432541
 C           -0.97737551        3.74688595       -2.10158065
 C           -2.75123988        0.13873775       -1.36319084
 C           -2.65162025        1.49747966       -1.68618139
 C           -2.29459086       -2.15457200       -2.11919442
 C           -2.78241359       -0.81172579       -2.38872311
 C           -0.19717774       -3.10711806       -3.05348094
 C            0.74946883       -2.16519530       -3.63593698
 C           -1.52891974       -2.59233457       -3.27044285
 C            0.34173640        0.21619193       -4.05889343
 C           -2.34816235       -0.44426933       -3.72941574
 C           -0.01017513       -1.11256793       -4.27473625
 C           -1.41730644       -1.46627849       -4.17613724
 C           -0.39732369        2.56322644       -4.04720287
 C           -1.51661622        3.02546091       -3.23897556
 C           -2.38231116        1.88078863       -2.99923073
 C           -0.63604582        1.16727713       -4.34431982
 C           -2.01034412        0.87594543       -3.97333774
