   70
C70 / DATE: 7/ 1/2024 / Origin: Program Fullerene / C70 from database
 C            1.10897727       -0.04699180        5.10405952
 C            0.37883849       -1.22561180        4.66984538
 C            1.33203978       -2.14201108        4.08835376
 C            2.46170153       -0.14615298        4.58315968
 C            2.62333229       -1.47445557        4.02486360
 C            2.69861405        1.00257694        3.72668933
 C            0.48219762        1.10676239        4.48699155
 C            1.47358661        1.78385381        3.67140488
 C           -0.74008138       -0.78582270        3.85311752
 C           -0.73842226        0.66376711        3.83776350
 C           -1.03839804       -1.44764512        2.66272403
 C            1.04862627       -2.66864769        2.77195906
 C           -0.19675023       -2.46300570        2.19198798
 C            3.12775521       -1.60793163        2.66667992
 C            2.21358323       -2.46557906        1.93517686
 C            3.43428485        0.83762184        2.56167562
 C            3.66253641       -0.50239994        2.02454289
 C            3.15502452        1.70537026        1.43294601
 C            1.05386819        2.31269799        2.45313754
 C            1.95442436        2.41313077        1.38595525
 C           -1.11185414        1.29576842        2.65904789
 C           -0.31368398        2.33634063        2.18631325
 C           -1.86798610       -0.79755145        1.74026555
 C           -1.90871035        0.59961219        1.74651992
 C           -2.26304514       -1.48958028        0.59236624
 C           -0.32266072       -2.81748328        0.85986021
 C           -1.56166191       -2.65330599        0.26887758
 C            1.99611129       -2.26476307        0.57162780
 C            0.80354131       -2.73723998        0.03633377
 C            3.55503242       -0.41392280        0.57857665
 C            3.59868150        0.99729899        0.24902682
 C            2.67017661       -1.24757193       -0.11125794
 C            3.10382856        1.39815775       -0.97534568
 C            1.49738286        2.88406919        0.14995395
 C            2.15907728        2.50147113       -1.01591328
 C           -0.75647602        3.04834582        1.08702534
 C            0.20696426        3.39710471        0.05845622
 C           -2.38934860        1.28355030        0.62937685
 C           -1.95503692        2.59047197        0.41404145
 C           -2.98720897       -0.81635241       -0.39936933
 C           -2.99254806        0.58039557       -0.41547477
 C           -3.43783683       -1.52468451       -1.51508182
 C           -1.72170500       -3.22092501       -0.98410169
 C           -2.85319923       -2.82108040       -1.78499260
 C            0.60395332       -2.64280011       -1.33539424
 C           -0.54925360       -3.23466360       -1.83946245
 C            2.22215872       -0.85912198       -1.38349438
 C            2.60104779        0.38384353       -1.88367894
 C            1.17631116       -1.55527215       -2.00582213
 C            1.41784840        2.36984664       -2.25962509
 C            1.73244496        1.06297165       -2.82038793
 C           -0.49550921        3.39219727       -1.21958131
 C           -1.89935709        3.11371292       -0.93464160
 C            0.11179458        2.84174225       -2.35063536
 C           -3.34751134        1.26421733       -1.58166912
 C           -2.68264969        2.51672173       -1.90521933
 C           -3.58753447       -0.84656425       -2.79280761
 C           -3.52543915        0.53675741       -2.82663904
 C           -2.42824156       -2.85178072       -3.17306947
 C           -0.97580047       -2.91811011       -3.18190962
 C           -2.81278814       -1.59103412       -3.77321815
 C            0.53719270       -0.99693287       -3.13065577
 C            0.72260219        0.35121400       -3.44751096
 C           -0.47273737       -1.70300847       -3.78284770
 C           -1.61485511       -0.97853627       -4.32181904
 C           -0.68643560        2.35318448       -3.38325975
 C           -2.12985894        2.38195320       -3.23609576
 C           -2.66811326        1.16650243       -3.81984936
 C           -0.33244522        1.07932708       -3.99124257
 C           -1.56039645        0.40598112       -4.37862959
