   70
C70 / DATE: 7/ 1/2024 / Origin: Program Fullerene / C70 from database
 C            1.05830789        0.04323724        4.86144110
 C            2.36524214       -0.32659668        4.38197084
 C            2.30796095       -1.74808682        4.07629203
 C            0.23801825       -1.15999150        4.81193602
 C            0.90668237       -2.06039993        3.90045305
 C           -1.10009649       -0.73804731        4.49056860
 C            0.32369468        1.06097541        4.14071487
 C           -1.05931267        0.70901798        4.34328616
 C            0.73169252        1.44322421        2.85581523
 C            2.86474464        0.32035309        3.18843923
 C            1.99189477        1.05082596        2.37691398
 C            3.19594150       -1.96831739        2.96500549
 C            3.71653058       -0.66685733        2.56718176
 C            2.65283658       -2.55973359        1.76261258
 C            0.39933136       -2.23399468        2.60383416
 C            1.26716301       -2.58723341        1.56133565
 C           -1.71169193       -1.24882147        3.28138723
 C           -0.92772374       -1.87882729        2.31396102
 C           -1.98532108        1.04035495        3.29467003
 C           -2.60477227       -0.19746733        2.85309606
 C           -0.22213215        1.96586839        1.96077988
 C           -1.58570777        1.92543015        2.30568799
 C            0.15922348        2.26284571        0.63954374
 C            2.28276397        1.19001915        1.01758249
 C            1.46959439        2.00138090        0.22966525
 C            3.79969604       -0.68336652        1.12374810
 C            3.48793199       -2.03594638        0.70587361
 C            3.23009501        0.35570886        0.39953793
 C            3.05545995       -2.21148596       -0.59217782
 C            0.79311622       -2.64028880        0.24651191
 C            1.72079106       -2.74688925       -0.78751031
 C           -1.36525560       -1.83034120        0.98613879
 C           -0.50470288       -2.21480427       -0.04938875
 C           -3.07796212       -0.22066888        1.55148512
 C           -2.58610599       -1.20405696        0.69087407
 C           -2.53113284        2.13384591        1.31699440
 C           -3.40556554        1.01551507        1.00524788
 C           -0.79312473        2.70927123       -0.29160341
 C           -2.13475916        2.72187276        0.06374241
 C           -0.46091218        2.84415110       -1.64387527
 C            1.84178866        2.22586695       -1.09083296
 C            0.85584257        2.67793290       -2.05074827
 C            3.18893222        0.20403458       -0.98458706
 C            3.16610191       -1.08731393       -1.50622199
 C            2.68193327        1.24302516       -1.74876057
 C            1.33044916       -2.38404056       -2.13307210
 C            2.27942444       -1.38839567       -2.61229172
 C           -0.93717949       -2.15567841       -1.38388983
 C           -0.01052857       -2.20658871       -2.43209335
 C           -3.07555296       -1.24175636       -0.61081619
 C           -2.25929304       -1.82047919       -1.65846898
 C           -3.75294156        1.10302308       -0.39796280
 C           -3.12947659        2.31364593       -0.91170357
 C           -3.72583238       -0.05773082       -1.15852590
 C           -1.47262388        2.85853805       -2.60633209
 C           -2.79956426        2.39076198       -2.25317833
 C           -1.19438330        2.36612949       -3.94448982
 C            1.14495365        2.02737375       -3.32278407
 C            2.09882385        0.96124803       -3.05346845
 C            1.80309075       -0.35689300       -3.41231472
 C            0.11662424        1.81405617       -4.23076755
 C           -0.29965460       -1.57611070       -3.64095336
 C            0.66264735       -0.61921297       -4.16547688
 C           -0.07499268        0.47817205       -4.76079581
 C           -2.58899189       -1.13992484       -2.90103771
 C           -3.39757394        0.02656357       -2.57057235
 C           -3.10091677        1.26857909       -3.12770962
 C           -2.19149520        1.35115050       -4.25626754
 C           -1.63107865       -1.06385593       -3.90205016
 C           -1.49096655        0.15620467       -4.68159934
