   70
C70 / DATE: 7/ 1/2024 / Origin: Program Fullerene / C70 from database
 C            1.20395994        0.15295671        5.42622448
 C            0.51362572       -1.06003269        5.02840873
 C            1.50450035       -1.95143127        4.47284726
 C            2.53387666        0.11927290        4.83259917
 C            2.70386972       -1.17246770        4.20341557
 C            2.68273365        1.30520025        4.01816548
 C            0.49143008        1.27535558        4.84519440
 C            1.46340280        2.08873903        4.15335077
 C           -0.62018195       -0.69079747        4.19339093
 C           -0.63262137        0.75673686        4.08337276
 C           -0.90717390       -1.44342415        3.05158956
 C            1.16727204       -2.63951701        3.24966486
 C           -0.13566807       -2.58144456        2.76909407
 C            2.95508655       -1.24519810        2.76876764
 C            2.23644035       -2.40650202        2.29451039
 C            2.94655065        1.16595638        2.59229414
 C            2.94381554       -0.09190931        1.98738205
 C            1.12175344        2.56449593        2.83135220
 C            2.22131101        2.24031041        1.94854154
 C           -0.93900331        1.31535927        2.84482794
 C           -0.16060805        2.36257351        2.33495186
 C           -1.63962024       -0.83601398        2.01878124
 C           -1.70276449        0.55977078        1.95100933
 C           -2.04078305       -1.59993793        0.92053591
 C           -0.33703625       -3.22128193        1.55821031
 C           -1.48063317       -2.86122699        0.75318375
 C            1.90464819       -2.49929149        0.94866180
 C            0.79847706       -3.28297974        0.65090898
 C            2.57647607       -0.18766678        0.64062694
 C            2.19309918       -1.42466700        0.10074866
 C            1.91658183        2.12329715        0.60222863
 C            2.33126404        0.98615786       -0.08311074
 C           -0.36068565        2.70761195        1.00572183
 C            0.75247108        2.73811816        0.16101364
 C           -2.15534049        1.17458936        0.78258694
 C           -1.58697904        2.40357832        0.44103735
 C           -2.65447844       -0.98449285       -0.17494406
 C           -2.79064567        0.40488769       -0.19748384
 C           -2.81857931       -1.71662210       -1.35521137
 C           -1.17186435       -3.32225484       -0.58545645
 C            0.27404486       -3.28046733       -0.69569445
 C           -1.91402270       -2.81619361       -1.63360455
 C            1.77425309       -1.47566839       -1.23331915
 C            0.84077973       -2.43854930       -1.64201312
 C            2.00637124        0.89824455       -1.43656569
 C            1.98498419       -0.35983578       -2.03856945
 C            0.53799225        2.79721122       -1.21228133
 C            1.29917390        1.95617252       -2.02476313
 C           -1.85320901        2.96373091       -0.79767011
 C           -0.71287656        3.22144984       -1.65541829
 C           -3.30528995        1.03267993       -1.33298398
 C           -2.90280953        2.39394640       -1.61006881
 C           -3.04851831       -1.03112322       -2.61679791
 C           -3.33728476        0.32270843       -2.60144356
 C           -1.22577777       -2.47956744       -2.86793091
 C            0.15405060       -2.25449295       -2.84199563
 C           -2.09646282       -1.56104586       -3.58454549
 C            1.70043310       -0.45804333       -3.39672037
 C            0.72915830       -1.45071106       -3.81872541
 C            1.07254341        1.94519667       -3.39736492
 C            1.44155192        0.75884106       -4.14214473
 C           -1.11766726        2.97858550       -3.02887307
 C           -2.48224305        2.47165275       -2.99944072
 C           -2.78059281        1.19505869       -3.62659712
 C           -0.20644506        2.41438030       -3.91138897
 C           -1.54708256       -0.72907953       -4.55071433
 C           -0.12584014       -0.84283929       -4.82437077
 C            0.38957747        0.48393497       -5.10553565
 C           -1.89366612        0.68466203       -4.57015530
 C           -0.68310482        1.43335313       -4.87129773
