   70
C70 / DATE: 7/ 1/2024 / Origin: Program Fullerene / C70 from database
 C            1.34452080       -0.10881385        4.18528383
 C            2.59294681       -0.37863942        3.51137720
 C            2.51211687       -1.71350247        2.94181529
 C            0.49420014       -1.28182548        4.03534146
 C            1.15315214       -2.18779647        3.12159228
 C           -0.83687633       -0.81471318        3.70554981
 C            0.56485206        1.04022211        3.76908524
 C           -0.82412955        0.63023867        3.84655526
 C            0.98416934        1.81789001        2.68492765
 C            3.01542520        0.51615905        2.45533631
 C            2.27809922        1.66217007        2.16299899
 C            3.04804803       -1.65494571        1.59067059
 C            3.49953104       -0.29745980        1.35201785
 C            2.37023569       -2.31064613        0.57363093
 C            0.46655936       -2.63755338        2.00226205
 C            1.20409229       -3.01362895        0.88649737
 C           -1.51557857       -1.37629457        2.62614962
 C           -0.90146727       -2.37838079        1.85745243
 C           -2.63089864       -0.70226776        2.12517027
 C           -1.76422173        1.36690748        3.15082439
 C           -2.76492060        0.66525780        2.36280822
 C            0.03479035        2.59592930        2.00644746
 C           -1.31237444        2.49430822        2.35630906
 C            0.39132070        3.32530072        0.86901379
 C            2.63398530        2.34907920        1.00988337
 C            1.69806346        3.27035702        0.39996798
 C            3.42572362        0.22786028        0.06434880
 C            3.29082972        1.61085360       -0.05857654
 C            2.59116460       -1.90361247       -0.74089350
 C            3.03809803       -0.60122007       -0.99615852
 C            2.06100468       -2.66903302       -1.77680961
 C            0.56864461       -3.74902889       -0.09994564
 C            1.09091398       -3.69862513       -1.45144937
 C           -1.58518813       -2.93885663        0.77081470
 C           -0.88083460       -3.69507209       -0.17250634
 C           -3.34008937       -1.25308146        1.06569499
 C           -2.85814837       -2.47408976        0.45183905
 C           -3.79902685       -0.37233602        0.00033831
 C           -3.13884511        1.53353436        1.25782117
 C           -2.33124443        2.73924388        1.35218804
 C           -3.39062700        0.95648504        0.01619044
 C           -0.60346175        3.85941004        0.04875428
 C           -1.97343170        3.40156266        0.19203019
 C           -0.35363280        4.00077527       -1.37489007
 C            1.95628876        3.27829222       -1.03411630
 C            2.88938652        2.20078340       -1.32385693
 C            0.91479948        3.54557638       -1.91365619
 C            2.87298639       -0.05593591       -2.27005982
 C            2.67691947        1.37616251       -2.41861458
 C            1.60137384       -2.01228603       -2.98743687
 C            1.98901088       -0.70624927       -3.22172074
 C           -0.03341388       -3.55322584       -2.36006360
 C           -1.25316939       -3.63113050       -1.58182278
 C            0.20274816       -2.36686044       -3.16120578
 C           -3.27834102       -2.45257581       -0.93848209
 C           -3.74272959       -1.11082739       -1.24246786
 C           -2.32129412       -2.83200722       -1.95635960
 C           -0.76574527       -1.36189529       -3.19031759
 C           -2.92294851       -0.58520307       -2.31279592
 C           -2.06844427       -1.65891707       -2.78716289
 C           -2.81074029        1.51431101       -1.12980833
 C           -2.37041634        2.83476902       -1.08482894
 C           -1.41680621        3.29729352       -2.07671869
 C           -2.38272548        0.68559769       -2.17642458
 C            0.62436567        2.61164495       -2.99107777
 C            1.50627995        1.57576073       -3.26258925
 C            0.97062404        0.26241691       -3.57763903
 C           -0.36683947       -0.02623649       -3.30564433
 C           -0.79749606        2.32110048       -2.94978500
 C           -1.22116409        0.99752020       -2.88310360
