   70
C70 / DATE: 7/ 1/2024 / Origin: Program Fullerene / C70 from database
 C            1.16247619        0.06983041        4.90432068
 C            2.40388189       -0.12478939        4.18614037
 C            2.46195092       -1.51948564        3.78323087
 C            0.34865529       -1.12231219        4.71225042
 C            1.15360329       -2.10422933        4.00638206
 C           -0.91763977       -0.70298182        4.13245522
 C            0.34550606        1.21446436        4.56340482
 C           -0.99868524        0.73024365        4.29531849
 C            0.72443583        2.04259978        3.43101993
 C            2.67791246        0.68440746        3.00684570
 C            1.76822692        1.65165229        2.59109252
 C            3.02716605       -1.56257981        2.44783361
 C            3.26545643       -0.19221160        2.01608967
 C            2.53217154       -2.47069787        1.51672910
 C            0.56804423       -2.83313413        2.98041806
 C            1.34412748       -3.15427482        1.79055053
 C           -1.33606926       -1.27274765        2.93178048
 C           -0.77362543       -2.48332843        2.53581672
 C           -2.04871468       -0.50958536        1.99637073
 C           -1.52304163        1.51315997        3.19907278
 C           -0.51721246        2.48753514        2.82926157
 C           -2.19435379        0.87705901        2.16582448
 C           -0.49935962        2.90146147        1.50625957
 C            1.70319967        1.99470347        1.23966975
 C            0.72003537        2.89540967        0.83092015
 C            3.12327259        0.10570370        0.66504917
 C            2.35892437        1.21179243        0.27768362
 C            2.90340386       -2.28134048        0.19098402
 C            3.28752426       -0.94273814       -0.23224575
 C            2.08617812       -2.84032787       -0.86859119
 C            0.38904038       -3.40352227        0.71857769
 C           -0.90544023       -2.91728415        1.15627029
 C            0.76431335       -3.18375646       -0.59801168
 C           -2.40442843       -1.08674089        0.77160943
 C           -1.66566942       -2.16069749        0.27511969
 C           -3.20978137       -0.36460112       -0.09984424
 C           -2.49926887        1.65440699        1.05127176
 C           -1.66736798        2.74240071        0.76082625
 C           -3.26596727        1.07592171        0.04963077
 C           -1.73417003        3.36831943       -0.47959272
 C            0.75394331        3.37569744       -0.47189842
 C           -0.49073152        3.82700052       -1.06935382
 C            2.09964311        1.42990108       -1.08130419
 C            1.47081887        2.60423245       -1.47117897
 C            2.86997728       -0.78119320       -1.61299969
 C            2.38794707       -2.07466532       -2.06600138
 C            2.18368404        0.37050295       -1.98571491
 C            1.48027780       -2.10524878       -3.10793621
 C           -0.21729062       -2.85997573       -1.53446493
 C           -1.40494205       -2.25057506       -1.09663414
 C            0.18857952       -2.71483729       -2.85621987
 C           -3.16726879       -0.66164130       -1.51971234
 C           -2.25215232       -1.59458246       -2.00009492
 C           -3.31138834        1.67030821       -1.27471233
 C           -2.54608298        2.79751079       -1.54067489
 C           -3.36877537        0.58729739       -2.24219301
 C           -0.48517223        3.43841634       -2.46638379
 C            0.69172007        2.61667283       -2.69737098
 C           -1.79178956        2.88944642       -2.78414460
 C            1.35918802        0.34022670       -3.11855044
 C            1.19676858       -0.86679252       -3.80311004
 C            0.55314840        1.44310329       -3.43229977
 C           -0.73120627       -2.17218325       -3.83166080
 C           -1.98123956       -1.61672959       -3.36608142
 C           -0.02401573       -1.11544222       -4.54159517
 C           -2.78182955        0.74988220       -3.49012000
 C           -1.85695561        1.85322708       -3.70586559
 C           -0.61347337        1.27356560       -4.18456620
 C           -2.22152537       -0.41748830       -4.15054250
 C           -0.94856789       -0.02334106       -4.73441006
