   70
C70 / DATE: 7/ 1/2024 / Origin: Program Fullerene / C70 from database
 C            1.49502566       -0.19910869        5.21219868
 C            0.66049280       -1.38549663        5.17433253
 C            1.26481336       -2.32346171        4.24434526
 C            2.59435711       -0.39597123        4.28249339
 C            2.49300522       -1.73806290        3.73962946
 C            2.60589784        0.72891412        3.36132754
 C            0.70330012        0.91185484        4.71701940
 C            1.47650839        1.58339017        3.68911970
 C           -0.63243125       -1.00380988        4.62982528
 C           -0.61061663        0.41486639        4.35058647
 C            0.24351283       -2.71743061        3.29057908
 C           -0.93182574       -1.89827879        3.53548664
 C            0.60626066       -2.95217728        1.96675741
 C            2.80946179       -1.93186540        2.40256370
 C            1.92819426       -2.74103904        1.57386941
 C            2.89465837        0.50355435        2.01650800
 C            3.20449738       -0.78924097        1.59255131
 C            2.44339895        1.42520261        1.07163086
 C            0.78590284        2.16814542        2.63701921
 C            1.46216410        2.35254860        1.43691307
 C           -1.15195057        0.86579746        3.15056091
 C           -0.59751014        2.00992435        2.58659418
 C           -1.60560509       -1.40033722        2.42875622
 C           -1.83613284       -0.02610718        2.31048328
 C           -0.38478612       -2.87442334        0.99241163
 C           -1.54599244       -2.14759178        1.26686381
 C           -0.02169203       -3.05571432       -0.33880066
 C            2.20380411       -2.38362158        0.18778801
 C            2.97680497       -1.15476850        0.20118623
 C            1.19386127       -2.52176600       -0.75744787
 C            2.65600564        1.16204736       -0.28013233
 C            2.65773068       -0.16083460       -0.71370573
 C            2.37611277        2.16390726       -1.19602189
 C            0.84813197        3.11662864        0.44695249
 C            1.47822142        3.22854051       -0.78746531
 C           -1.28459975        2.61367894        1.54759222
 C           -0.52752217        3.33343645        0.53864277
 C           -2.37447361        0.46482220        1.10858403
 C           -2.29233866        1.83252511        0.85282161
 C           -2.35479390       -1.77596961        0.20678335
 C           -2.63938763       -0.41479754        0.04716731
 C           -1.04605105       -3.17675043       -1.26659039
 C           -2.32843120       -2.60347495       -0.90577013
 C           -0.79296460       -2.78703872       -2.63886502
 C            1.21519204       -1.70418829       -1.89131263
 C            1.93888064       -0.50295323       -1.86207603
 C            0.27986387       -1.93504989       -2.90196029
 C            2.03375976        1.79589397       -2.55799337
 C            1.74461673        0.46467694       -2.85192917
 C            0.70666668        3.62962818       -1.95002061
 C            1.16241611        2.83315756       -3.07589709
 C           -1.34685987        3.35560817       -0.66262322
 C           -2.35425608        2.31740948       -0.51622970
 C           -0.73984262        3.53881127       -1.89466282
 C           -2.91009796        0.09664678       -1.23331898
 C           -2.55754112        1.41207559       -1.54916509
 C           -2.97993196       -2.17227202       -2.12104836
 C           -2.09679555       -2.51803021       -3.22129689
 C           -3.29897126       -0.76956494       -2.25148494
 C           -2.21793824       -1.47380037       -4.21340518
 C           -3.02166446       -0.40731446       -3.62687701
 C            0.24836702       -1.09649938       -4.01421148
 C            0.94291716        0.17637741       -3.95645196
 C           -1.00276545       -0.87478374       -4.72409685
 C           -0.00110372        2.42864263       -3.83469628
 C           -1.17306027        2.73312575       -3.02331687
 C           -2.14605515        1.74767594       -2.84678014
 C           -2.34564530        0.84627704       -3.88914503
 C            0.04108780        1.20165749       -4.47813060
 C           -1.22425788        0.55614647       -4.76501456
