   70
C70 / DATE: 7/ 1/2024 / Origin: Program Fullerene / C70 from database
 C            1.48149548       -0.08925097        4.26035033
 C            2.64553909       -0.20220210        3.39814839
 C            2.48108587       -1.39565332        2.58157985
 C            0.67262183       -1.27880059        4.07008659
 C            1.21854480       -2.01768019        2.94516511
 C           -0.71552539       -0.86723177        4.01255185
 C            0.61033906        1.06804455        4.12940833
 C           -0.73567905        0.58103462        3.88015412
 C            1.06730470        2.18067328        3.43981833
 C            3.16272042        0.94556641        2.81588165
 C            2.43750143        2.19896151        2.95246954
 C            3.67129829        0.87927733        1.45847222
 C            2.85192542       -1.36969522        1.24294102
 C            3.66079597       -0.32832495        0.76919700
 C            2.12354835       -2.14709718        0.33996340
 C            0.35169578       -2.45074920        1.94171385
 C            0.78963475       -2.45260441        0.61427432
 C           -1.57676615       -1.60597588        3.21931687
 C           -1.01202803       -2.50346325        2.21764887
 C           -2.69025321       -0.92567718        2.58810361
 C           -1.51839197        1.15790683        2.87869132
 C           -2.63775093        0.45881336        2.41680528
 C            0.22720088        2.77461225        2.41446058
 C           -1.02009003        2.22910960        2.12496860
 C            2.44328724        2.86419348        1.65953807
 C            3.22699589        2.06687757        0.74746652
 C            1.07744947        3.15615063        1.30162653
 C            2.80324955        1.91378734       -0.56948152
 C            3.91601032       -0.25601366       -0.59526953
 C            3.44758432        0.92698075       -1.30483975
 C            2.62068803       -2.33655977       -0.93983541
 C            3.62012771       -1.40786516       -1.41919026
 C            1.69579242       -2.58880109       -2.02850285
 C           -0.12518577       -2.61158231       -0.43850751
 C            0.33459649       -2.72648954       -1.75554765
 C           -1.96235574       -2.58892377        1.12424089
 C           -3.10859564       -1.76953414        1.48222174
 C           -1.50271660       -2.57569365       -0.18694895
 C           -3.87701336       -1.21337974        0.47281610
 C           -3.44792619        1.04645483        1.44893165
 C           -4.22582575        0.19253289        0.56741988
 C           -1.58182635        2.50457738        0.87850347
 C           -2.89663697        2.12115362        0.64610174
 C            0.63421370        2.87171702        0.01645611
 C            1.49323550        2.27610553       -0.92464844
 C           -0.73977980        2.82475094       -0.19215315
 C            0.98099155        1.90836488       -2.18055015
 C            2.89600181        0.49861606       -2.57244918
 C            3.18433381       -0.91746532       -2.71170051
 C            2.12132406       -1.78504262       -3.17141977
 C            1.64849644        0.96429758       -2.97048931
 C            1.14634196       -1.22694044       -3.98170481
 C            0.93900268        0.21529430       -3.91404128
 C           -0.56878056       -2.58732814       -2.80546165
 C           -0.16025540       -1.84779802       -3.98604401
 C           -2.39374154       -2.24152073       -1.20979599
 C           -3.52722089       -1.48801541       -0.91045108
 C           -1.93970836       -2.21625810       -2.52058409
 C           -4.17911724        0.76148882       -0.76907934
 C           -3.38351165        1.96977714       -0.71567426
 C           -3.78872801       -0.28854730       -1.69028335
 C           -1.20848068        2.77689656       -1.49594952
 C           -0.30861693        2.30881534       -2.53296918
 C           -2.53295484        2.24973445       -1.77285936
 C           -0.47219224        0.47309664       -4.14396650
 C           -1.14540014       -0.80765047       -4.22379643
 C           -2.26894147       -1.06142117       -3.34386364
 C           -2.93494899        0.00630268       -2.74964374
 C           -1.08954388        1.50710089       -3.46078734
 C           -2.40648536        1.29816968       -2.86900423
