   70
C70 / DATE: 7/ 1/2024 / Origin: Program Fullerene / C70 from database
 C            1.21953517        0.22419873        4.64699868
 C            2.48030095        0.03464531        3.96381240
 C            2.52512356       -1.34753777        3.52023314
 C            0.40933841       -0.96400413        4.40810800
 C            1.17564869       -1.85822175        3.55766412
 C           -0.89828456       -0.52428517        3.95389051
 C            0.41916793        1.37642269        4.29346301
 C           -0.94376825        0.91297283        4.10621162
 C            0.77343564        2.14813038        3.11192337
 C            2.78891297        0.86163350        2.80717909
 C            1.83259774        1.74069409        2.30254366
 C            3.21171079       -1.36432947        2.25169701
 C            3.51186253        0.01196124        1.88542146
 C            2.75792669       -2.20655344        1.24621014
 C            0.60149188       -2.31003229        2.37272549
 C            1.41280844       -2.62574171        1.26919026
 C           -1.42701443       -1.07669773        2.79246085
 C           -0.77147729       -2.15153731        2.19460982
 C           -2.35606730       -0.34382331        2.04574085
 C           -1.51483470        1.68695176        3.02533026
 C           -0.47291538        2.54233580        2.49014268
 C           -2.34476171        1.05661695        2.10824302
 C           -0.49986553        2.79240222        1.12683018
 C            1.76694784        1.95969469        0.92249385
 C            0.66852189        2.64303041        0.37525665
 C            3.52004598        0.32932709        0.53258116
 C            2.74390832        1.40324907        0.08564156
 C            3.39886425       -2.05400983        0.02544808
 C            3.80539194       -0.71072190       -0.35179717
 C            2.86635818       -2.70828877       -1.14296900
 C            0.81760174       -3.17520413        0.11841545
 C            1.50586612       -3.18542943       -1.09315309
 C           -1.38748199       -2.80500962        1.14362708
 C           -0.56619884       -3.32496309        0.06655390
 C           -3.02244454       -0.97171196        0.98756475
 C           -2.58625979       -2.22687794        0.55854855
 C           -3.82368474       -0.20433037        0.14257398
 C           -2.66331871        1.77068989        0.95889329
 C           -1.72616084        2.69038400        0.47711591
 C           -3.61719068        1.23099880        0.10769957
 C           -1.81167536        3.16760819       -0.82200184
 C            0.62870081        2.94038949       -0.99243389
 C           -0.57825805        3.34515301       -1.56768092
 C            2.73321092        1.70025771       -1.27241537
 C            1.64905120        2.49053122       -1.82655076
 C            3.55714480       -0.54906421       -1.77324219
 C            2.97933762       -1.78859228       -2.26341560
 C            3.04066957        0.65139642       -2.23221405
 C            0.82822953       -2.71550870       -2.29316268
 C            1.69225829       -1.74667569       -2.93736500
 C           -1.25296671       -3.04332203       -1.18478053
 C           -2.57955169       -2.55260560       -0.86169320
 C           -0.53692690       -2.46978682       -2.23232487
 C           -4.05292992       -0.65112130       -1.22063574
 C           -3.21703965       -1.70713330       -1.75474917
 C           -3.69921265        1.67203507       -1.27394873
 C           -2.82217829        2.64583115       -1.72719772
 C           -3.93771423        0.49940838       -2.09952567
 C           -0.85011552        3.00045771       -2.95225339
 C           -2.20449184        2.48261686       -3.03230577
 C            1.31895294        1.92571312       -3.13090341
 C            1.95310964        0.62480391       -3.19426509
 C            1.16152081       -0.51868367       -3.30990496
 C            0.02653815        2.05421579       -3.61033032
 C           -1.07183147       -1.36861429       -2.90923653
 C           -2.44883117       -1.14886144       -2.85694245
 C           -2.98977562        0.16743939       -3.15137543
 C           -2.14235288        1.15646964       -3.62668633
 C           -0.22242754       -0.38406137       -3.43506704
 C           -0.74208313        0.84267530       -3.85051549
