   70
C70 / DATE: 7/ 1/2024 / Origin: Program Fullerene / C70 from database
 C            1.47565867        0.02048987        5.14114608
 C            0.63635727       -1.15661292        5.24444874
 C            1.23815286       -2.19235944        4.42785114
 C            2.54041889       -0.26954119        4.19280984
 C            2.33365403       -1.60232237        3.67513330
 C            2.58572251        0.82194404        3.25037902
 C            0.67150016        1.08125970        4.56448211
 C            1.47201918        1.70498398        3.53582107
 C           -0.65176771       -0.84150833        4.64756400
 C           -0.60445629        0.52386883        4.16585383
 C            0.16821701       -2.81501875        3.67912093
 C           -0.95725628       -1.88963562        3.69583391
 C            0.49907970       -3.39009167        2.46543637
 C            2.37765979       -1.81489196        2.29556954
 C            1.71161253       -2.93257959        1.79479269
 C            2.83890789        0.55437856        1.91033201
 C            2.68971351       -0.75699018        1.42350907
 C            2.63626774        1.61000757        1.02328793
 C            0.82638004        2.23861308        2.43304198
 C            1.62254762        2.52452806        1.33291075
 C           -1.05593414        0.79636178        2.87708820
 C           -0.50440118        1.87551007        2.18612057
 C           -1.54717173       -1.54514189        2.48104319
 C           -1.71920578       -0.19448026        2.15035502
 C           -0.52130427       -3.44435664        1.44200017
 C           -1.53862559       -2.49067899        1.45605491
 C            1.48304873       -3.05592820        0.36422472
 C            0.18406470       -3.68614668        0.20221579
 C            2.61131088       -0.95973437        0.03559637
 C            1.83311490       -2.00276013       -0.47335591
 C            3.02225272        1.42088992       -0.29622595
 C            2.99743264        0.06916469       -0.81786110
 C            2.53892817        2.31436521       -1.33404274
 C            1.03755251        3.28175613        0.33178919
 C            1.59268753        3.27295691       -1.00648791
 C           -1.07446348        2.25434745        0.96879100
 C           -0.40535968        3.21236626        0.21596989
 C           -2.22429333        0.12353400        0.88997883
 C           -1.94324131        1.37297352        0.31934861
 C           -2.18184536       -2.19094271        0.25711277
 C           -2.70406560       -0.90831530        0.08505784
 C           -0.50801728       -3.47690953       -0.97339802
 C           -1.84931555       -2.94054807       -0.87038765
 C            1.17905808       -1.86198015       -1.70596792
 C            0.13536828       -2.71993874       -2.02878588
 C            2.43673675        0.12786744       -2.15609200
 C            2.37414382        1.52579112       -2.54512196
 C            1.39069840       -0.72719631       -2.48722951
 C            1.43822362        1.91132376       -3.49413511
 C            0.50082659        3.54264279       -1.92411492
 C           -0.74388916        3.39605690       -1.17864864
 C            0.56564408        3.04564926       -3.21827646
 C           -2.40838274        1.66476216       -0.97083065
 C           -1.78704738        2.66643514       -1.73646499
 C           -3.35392543       -0.58874035       -1.10326360
 C           -3.32085585        0.78893646       -1.55903400
 C           -2.18469987       -2.42948360       -2.18180104
 C           -0.92446764       -2.24166760       -2.89522521
 C           -3.14612485       -1.43760299       -2.26811538
 C            0.44480634       -0.33445788       -3.44779571
 C            0.61569092        0.88503269       -4.10790225
 C           -0.73543029       -1.07460242       -3.62943219
 C           -0.68420514        2.80531218       -3.91672692
 C           -1.89584184        2.67065313       -3.12852810
 C           -0.53308058        1.56952632       -4.66465813
 C           -3.47834039        0.75868405       -2.99958578
 C           -3.12150035       -0.57914331       -3.43430392
 C           -1.87329014       -0.46361997       -4.16295993
 C           -2.70981822        1.68327218       -3.80165834
 C           -1.81383464        0.89968287       -4.64365356
