   70
C70 / DATE: 7/ 1/2024 / Origin: Program Fullerene / C70 from database
 C            1.57707431        0.07942247        4.73917483
 C            0.79400666       -1.14166082        4.68892558
 C            1.39988435       -2.02474817        3.70653241
 C            2.66583238       -0.05664559        3.78981753
 C            2.65667978       -1.42003263        3.29300474
 C            2.57030449        1.02805794        2.82430549
 C            0.72624059        1.15905131        4.27767149
 C            1.35988953        1.77010229        3.12075383
 C           -0.59691169       -0.76890967        4.50637701
 C           -0.62095947        0.63514306        4.12366416
 C           -1.41430569       -1.65037692        3.81845847
 C            0.56926560       -2.63239744        2.76208662
 C           -0.78789729       -2.72347696        3.05922771
 C            1.00284384       -2.75915685        1.43381173
 C            3.10095672       -1.63213278        2.00149268
 C            2.33549828       -2.50962258        1.13587260
 C            2.88469217        0.75859454        1.49340314
 C            3.45152217       -0.47464339        1.19611577
 C            2.22826553        1.45865387        0.47256321
 C            0.55226381        2.15716667        2.06383116
 C            1.09595441        2.21827785        0.78027212
 C           -1.34823847        1.02836348        3.00180772
 C           -0.82926098        2.04777704        2.20708657
 C           -2.45903804       -1.11051389        2.97094438
 C           -2.32777749        0.18149741        2.46832502
 C           -1.71779244       -3.11193526        2.02116951
 C           -2.82759546       -2.17131272        2.06281649
 C            0.07955835       -2.86180957        0.38303118
 C           -1.24422922       -3.16976256        0.65387403
 C            0.42303111       -2.43485058       -0.90556469
 C            2.70342405       -2.17068146       -0.22404369
 C            3.45060123       -0.92385537       -0.17252217
 C            1.77527495       -2.32004846       -1.25007074
 C            2.52251280        1.16978022       -0.86803637
 C            3.21376311       -0.01279516       -1.18431675
 C            1.86664284        1.88170700       -1.88607494
 C            0.32192479        2.75964431       -0.24389178
 C            0.74211127        2.66018164       -1.57099578
 C           -1.63388569        2.58964221        1.22301894
 C           -0.99737130        3.12017569        0.03443346
 C           -2.94109483        0.52222528        1.25283964
 C           -2.79227587        1.83071689        0.79068561
 C           -3.14465125       -1.81640270        0.70030345
 C           -2.27355135       -2.58426605       -0.17653718
 C           -3.38325414       -0.48554413        0.37705550
 C           -0.57950735       -1.97008215       -1.77951567
 C           -1.92561173       -2.01937135       -1.39869893
 C           -0.22853273       -1.33197692       -2.97681021
 C            2.11868329       -1.74234212       -2.46923186
 C            3.00008171       -0.58596175       -2.42585194
 C            1.08208391       -1.43382812       -3.42876739
 C            2.17109012        1.58889133       -3.22055888
 C            2.66808307        0.27066314       -3.53258767
 C            1.63068984       -0.40493313       -4.29270206
 C            1.22280081        1.89543287       -4.27124260
 C            0.74820293        0.62082321       -4.79497149
 C           -0.11830816        3.11615683       -2.57556077
 C            0.06202329        2.68770681       -3.94472312
 C           -1.98963869        3.09197327       -1.02165752
 C           -3.02490505        2.15330043       -0.60779970
 C           -1.54957801        3.10086941       -2.33543424
 C           -3.51062573       -0.21172579       -0.98125663
 C           -2.79612836       -1.06798200       -1.91413176
 C           -3.42686422        1.14949414       -1.47257124
 C           -1.12351479       -0.44121076       -3.59267855
 C           -0.65953595        0.53648371       -4.47506491
 C           -1.11178478        1.90310607       -4.29457897
 C           -2.12787719        2.16678857       -3.29019911
 C           -2.38499610       -0.25733573       -3.03910614
 C           -2.87625860        1.09646055       -2.81699834
