   70
C70 / DATE: 7/ 1/2024 / Origin: Program Fullerene / C70 from database
 C            1.08637557        0.15767142        5.48642451
 C            0.40602025       -1.06217760        5.08908387
 C            1.39731782       -1.94320046        4.51939491
 C            2.41902134        0.13048307        4.90142417
 C            2.60006224       -1.16092870        4.27340919
 C            2.56703369        1.31822316        4.08920862
 C            0.37001717        1.27551527        4.89826258
 C            1.33390213        2.08630676        4.19433596
 C           -0.73699236       -0.69935865        4.26825829
 C           -0.75392068        0.74780246        4.14771887
 C           -1.04180912       -1.45445867        3.13365561
 C            1.06611562       -2.61196302        3.28145061
 C           -0.23363178       -2.54923002        2.78744317
 C            2.87994748       -1.23214888        2.84459776
 C            2.15149363       -2.37778208        2.34464321
 C            2.86673649        1.18229445        2.67129664
 C            2.91506879       -0.07604459        2.06716052
 C            0.99752930        2.53233979        2.85796383
 C            2.12892667        2.23549201        2.00605797
 C           -1.07514102        1.29298790        2.90644724
 C           -0.27183971        2.29030680        2.33766471
 C           -1.83672873       -0.85971003        2.14763716
 C           -1.88054104        0.53811859        2.05802191
 C           -2.28952588       -1.63572095        1.07988810
 C           -0.42287570       -3.14027517        1.54495420
 C           -1.57722605       -2.77850392        0.74686739
 C            1.84794761       -2.44881996        0.99083714
 C            0.71955431       -3.18109738        0.64672320
 C            2.62154132       -0.17064620        0.70296860
 C            2.23267245       -1.39936118        0.15203954
 C            1.87190024        2.10456174        0.65277245
 C            2.38842605        1.00412257       -0.01973449
 C           -0.44980823        2.56473278        0.98200386
 C            0.68746069        2.64261868        0.17002112
 C           -2.36354958        1.13806884        0.89813310
 C           -1.66681736        2.23593019        0.39102604
 C           -3.08867983       -1.05001054        0.10463710
 C           -3.19856268        0.39460743        0.07213722
 C           -2.96731834       -1.50320405       -1.27255707
 C           -1.22418415       -3.01263127       -0.64551644
 C            0.21884269       -3.10852803       -0.70754219
 C           -1.87361580       -2.28751925       -1.63746069
 C            1.88123181       -1.44290806       -1.20010178
 C            0.87847843       -2.32018326       -1.63279872
 C            2.14714370        0.92094525       -1.38970312
 C            2.17901410       -0.33639474       -1.99166495
 C            0.52822328        2.69298552       -1.21017762
 C            1.41018421        1.94739767       -1.99403310
 C           -1.88806782        2.66843287       -0.91306105
 C           -0.72889433        3.00863069       -1.71343765
 C           -3.41395077        0.79627449       -1.30808904
 C           -3.38606795       -0.40585895       -2.12980960
 C           -2.82381209        1.96253428       -1.77048408
 C           -2.89225046       -0.34464355       -3.42624245
 C           -1.18629793       -1.99000340       -2.81992431
 C            0.21939843       -2.04196534       -2.82632069
 C           -1.87519694       -1.30098511       -3.81876472
 C            1.95174152       -0.42957324       -3.36176012
 C            0.94839092       -1.37688705       -3.80610101
 C            1.26550512        1.95058960       -3.37787883
 C            1.74263460        0.79522752       -4.10786184
 C           -1.03986985        2.72803686       -3.10355714
 C           -2.31910043        2.02640203       -3.13472286
 C           -2.50140770        0.93900807       -3.98491207
 C           -0.01140906        2.34350613       -3.95524289
 C           -1.16262421       -0.73361391       -4.94709320
 C            0.27893595       -0.82219478       -4.96534535
 C            0.80527280        0.51448887       -5.18172429
 C           -1.52747764        0.67408155       -5.03179380
 C           -0.30087321        1.44780667       -5.06115323
