   70
C70 / DATE: 7/ 1/2024 / Origin: Program Fullerene / C70 from database
 C            1.12466279       -0.03320979        4.77554704
 C            2.40342810       -0.40776566        4.22548729
 C            2.30370402       -1.80642937        3.83103895
 C            0.28338410       -1.22012752        4.72844451
 C            0.89027098       -2.10821815        3.76030384
 C           -1.06408330       -0.76672267        4.48838015
 C            0.37735267        1.02427832        4.12605671
 C           -1.00784886        0.68031956        4.33549530
 C            0.76717449        1.48035105        2.86218074
 C            2.89047153        0.30976323        3.06754155
 C            2.04062293        1.16815719        2.36440801
 C            3.09963078       -1.96577882        2.63815731
 C            3.65208921       -0.65932852        2.31573792
 C            2.45408324       -2.44580320        1.43370746
 C            0.28296171       -2.27600131        2.50932544
 C            1.06683440       -2.56506208        1.37974174
 C           -1.76880182       -1.27505849        3.32918011
 C           -1.08709039       -2.00434512        2.35568879
 C           -1.94901314        1.02798114        3.30039501
 C           -2.62197970       -0.19424861        2.89207975
 C           -0.19395439        2.04641804        2.00425428
 C           -1.56226413        1.90884297        2.30061461
 C            0.20722414        2.55033980        0.75457240
 C            2.33923310        1.46656375        1.03426473
 C            1.54108724        2.38272453        0.35264288
 C            3.64748489       -0.54464445        0.87599000
 C            3.12248459       -1.78147444        0.33682413
 C            3.19006609        0.62768301        0.29633166
 C            2.46625901       -1.69901512       -0.88161744
 C            0.46541044       -2.60629387        0.12246736
 C            1.22286534       -2.31727615       -1.02249310
 C           -1.66772001       -2.09384282        1.08898561
 C           -0.91988517       -2.63263825        0.04226725
 C           -3.13171965       -0.24284028        1.60270787
 C           -2.82669979       -1.35065353        0.81257640
 C           -2.49144985        2.09032998        1.28942710
 C           -3.36574682        0.97450492        0.96866221
 C           -0.75766159        3.02676352       -0.15169179
 C           -2.08965377        2.70752473        0.05099729
 C           -0.39549543        3.36326020       -1.45043797
 C            1.94435945        2.76234663       -0.92488269
 C            0.99948193        3.40096300       -1.80952378
 C            3.05821314        0.61541621       -1.08777091
 C            2.75130696       -0.60701280       -1.69693893
 C            2.70761870        1.80794259       -1.70428583
 C            2.27879293       -0.64266777       -3.00106057
 C            0.60633229       -2.29146274       -2.27907737
 C            1.21894408       -1.58551033       -3.31770353
 C           -1.51765354       -2.86428792       -1.18839010
 C           -0.73794657       -2.65036193       -2.39477646
 C           -3.40614005       -1.43017824       -0.44965225
 C           -2.84881969       -2.34684114       -1.42196993
 C           -3.62608446        1.00258421       -0.46081983
 C           -2.82889707        2.07439119       -1.03171799
 C           -3.73756838       -0.19528102       -1.14489934
 C           -1.13260486        2.76187270       -2.55405291
 C           -2.19581267        1.90718557       -2.26255804
 C            1.14059926        2.80921049       -3.13085217
 C            2.18819568        1.80466026       -3.05997415
 C            2.01219827        0.59477389       -3.71478337
 C           -0.18306106        2.42829347       -3.59949774
 C            0.39699947       -0.98747228       -4.35292066
 C            0.81944611        0.39240812       -4.52074741
 C           -0.33836419        1.24488068       -4.30454391
 C           -1.59260784       -1.97370115       -3.36664253
 C           -2.85003598       -1.67878277       -2.71156121
 C           -3.20129589       -0.28794089       -2.48917679
 C           -2.35186451        0.70828535       -2.97404256
 C           -1.03976770       -0.99778946       -4.18147886
 C           -1.47168182        0.38504837       -4.00994125
