   70
C70 / DATE: 7/ 1/2024 / Origin: Program Fullerene / C70 from database
 C            1.40875090       -0.25873121        5.14122782
 C            0.55590697       -1.41885484        4.96537193
 C            1.16893608       -2.27243705        3.96344130
 C            2.53722594       -0.39413448        4.23516084
 C            2.35797540       -1.60485511        3.46801421
 C            2.66346258        0.84892180        3.51072252
 C            0.65765524        0.91159329        4.71992689
 C            1.51157852        1.67593086        3.84487432
 C           -0.70579550       -0.95867123        4.41647168
 C           -0.61219918        0.47211694        4.19102192
 C            0.14190496       -2.62803870        2.99664941
 C           -1.01809267       -1.80225927        3.27987098
 C            0.51655842       -2.77557931        1.66097703
 C            2.53318680       -1.55754543        2.09136339
 C            1.83809937       -2.48689364        1.32250773
 C            3.06901908        0.82139950        2.17756556
 C            3.00746189       -0.39060969        1.46929558
 C            2.92306463        2.01443363        1.47525162
 C            0.93766304        2.39890718        2.80843249
 C            1.84155951        2.89485013        1.88244026
 C           -1.02365052        0.96634086        2.95579696
 C           -0.35473852        2.04850167        2.36729396
 C           -1.65996416       -1.22933817        2.19549932
 C           -1.82111432        0.15624308        2.15260450
 C           -0.46817830       -2.63672497        0.67371685
 C           -1.62033274       -1.91255098        0.98648732
 C           -0.11240246       -2.82495616       -0.66791299
 C            2.23352057       -2.65896682        0.01002156
 C            1.23269946       -3.04121138       -0.96585825
 C            3.11007353       -0.38565598        0.07167337
 C            3.03249081       -1.60764894       -0.59057670
 C            2.94808759        2.00503502        0.02622668
 C            2.85205266        0.79296564       -0.63705559
 C            1.34605824        3.56975187        0.71213879
 C            2.12983760        3.11191143       -0.42429083
 C           -0.83439353        2.53868817        1.13929577
 C           -0.04694678        3.39979438        0.37555357
 C           -2.39627130        0.69801287        1.01318536
 C           -1.92233192        1.91388080        0.51639986
 C           -2.42828905       -1.44116365       -0.03703099
 C           -3.00622626       -0.18157730        0.12756530
 C           -1.01007652       -2.46121141       -1.68781915
 C           -2.26624734       -1.96116548       -1.31791242
 C           -0.54222756       -2.27936797       -3.00529586
 C            1.74642139       -2.63466969       -2.25171616
 C            2.77125941       -1.62998732       -2.01572917
 C            0.81606468       -2.09129541       -3.20554537
 C            2.23873871        0.74631393       -1.89742737
 C            2.34022233       -0.40605596       -2.65903648
 C            1.25481377       -0.75120812       -3.55521828
 C            1.20924053        2.89021487       -1.52117749
 C           -0.10614076        3.30228731       -1.06914263
 C            1.30688751        1.72118976       -2.27066641
 C           -2.23324621        2.25652384       -0.80632626
 C           -1.19931538        2.68013047       -1.64055316
 C           -3.75445052        0.35919592       -0.90384095
 C           -3.34447068        1.65967948       -1.40224072
 C           -3.20474358       -1.62627059       -2.29074772
 C           -4.06453097       -0.48370899       -2.04153673
 C           -1.35608240       -1.62892000       -3.92226140
 C           -2.77303617       -1.55122751       -3.66676038
 C            0.26600150        0.18699254       -3.83792770
 C            0.21497154        1.36498611       -3.07360598
 C           -1.00838619        2.01870116       -2.85055596
 C           -0.91280026       -0.31958711       -4.38226932
 C           -3.39604135        1.59904280       -2.85467993
 C           -4.05796098        0.35995778       -3.22185699
 C           -3.24414183       -0.29624093       -4.22744914
 C           -2.13969077        1.67091251       -3.57672695
 C           -2.07493449        0.53391320       -4.46529524
