   70
C70 / DATE: 7/ 1/2024 / Origin: Program Fullerene / C70 from database
 C            1.32427580        0.00565017        4.40307777
 C            2.56419628       -0.18547937        3.68965300
 C            2.51766300       -1.49538396        3.06113738
 C            0.48463652       -1.15984218        4.16279462
 C            1.17490181       -2.01488286        3.21476619
 C           -0.84586092       -0.68132941        3.82559397
 C            0.52696539        1.17746419        4.10666035
 C           -0.86087639        0.74492638        4.08868896
 C            0.96131846        2.11193376        3.16245021
 C            2.93334396        0.77340348        2.66829523
 C            2.14807555        1.90290751        2.43881575
 C            3.04951162       -1.35994832        1.71972420
 C            3.43669393        0.02412468        1.52727972
 C            2.41084497       -2.00335538        0.67213882
 C            0.49387456       -2.43873849        2.07954291
 C            1.20543043       -2.67621977        0.90052802
 C           -1.46162460       -1.16847308        2.67582901
 C           -0.88466227       -2.25267340        2.01181597
 C           -2.42331579       -0.39052620        2.01978887
 C           -1.79323174        1.53422112        3.43631393
 C           -2.63226993        0.93195228        2.41089112
 C            0.04650203        3.07335250        2.73315721
 C           -1.37110129        2.83612554        2.95102356
 C            0.18668820        3.67902113        1.42107998
 C            2.38221046        2.61511471        1.26418972
 C            1.35592355        3.48287216        0.71245856
 C            3.32228758        0.57905348        0.25397492
 C            3.03458574        1.94054077        0.15081134
 C            2.71567030       -1.59510329       -0.61904183
 C            3.08129710       -0.26135205       -0.84077458
 C            2.27950352       -2.39266963       -1.67011398
 C            0.54906645       -3.27331081       -0.17912367
 C            1.19294478       -3.32095880       -1.41503800
 C           -1.58115690       -2.84706120        0.97141010
 C           -0.83272891       -3.45974730       -0.11312213
 C           -2.90203066       -0.80305384        0.77321263
 C           -2.69220864       -2.12347466        0.38590370
 C           -3.22557715        0.16262492       -0.18635732
 C           -2.86309115        1.92701615        1.38066927
 C           -2.06381296        3.09450927        1.70092866
 C           -1.08364669        3.54093916        0.72987082
 C           -2.91246237        1.49767713        0.06200324
 C           -1.11689714        2.98276542       -0.54517349
 C           -2.22771450        2.22662209       -0.91409052
 C            1.28056284        3.22275687       -0.71492665
 C            2.46877514        2.47436277       -1.07797264
 C            0.05851885        2.88946889       -1.29814128
 C            2.90597452        0.30552381       -2.10221280
 C            2.43069599        1.67201167       -2.20442306
 C            2.07925096       -1.81617193       -2.98809535
 C            2.25972107       -0.45466976       -3.15663974
 C            0.40984496       -3.43025608       -2.63330344
 C            0.91246338       -2.44410481       -3.57649198
 C           -1.64758691       -3.36082144       -1.31674551
 C           -2.78126165       -2.50008884       -1.01510923
 C           -1.03140898       -3.28548540       -2.55881009
 C           -3.51993881       -0.21689313       -1.49273514
 C           -3.20585748       -1.56114153       -1.94372978
 C           -2.36126997        1.85505051       -2.24393091
 C           -3.17863238        0.69875256       -2.56428866
 C            0.04638288        2.21695707       -2.52537383
 C            1.22259052        1.64895219       -3.01296571
 C            1.16708451        0.35678158       -3.67963483
 C           -1.16718567        1.80205883       -3.06737370
 C           -0.20299903       -1.60944061       -3.98497971
 C           -1.42043297       -2.24254780       -3.49571990
 C           -2.53666286       -1.45888391       -3.23335610
 C           -2.50197240       -0.05681920       -3.60359331
 C           -0.07472181       -0.21930081       -3.94618567
 C           -1.21607672        0.57271450       -3.84690515
