   70
C70 / DATE: 7/ 1/2024 / Origin: Program Fullerene / C70 from database
 C            1.52510612        0.12890481        4.76385042
 C            0.74761904       -1.08169431        4.57232553
 C            1.42245563       -1.89512881        3.57494836
 C            2.64834052        0.07932768        3.84558279
 C            2.69464534       -1.25196798        3.27731970
 C            2.54748763        1.20904454        2.93629775
 C            0.68930950        1.24881663        4.37609784
 C            1.36457973        1.96501574        3.31075010
 C           -0.62748645       -0.69147367        4.32755327
 C           -0.64853303        0.74835121        4.11606544
 C           -1.38974121       -1.48924183        3.49320620
 C            0.66850869       -2.45545601        2.53909817
 C           -0.72005170       -2.47659932        2.65402427
 C            1.26182130       -2.67579419        1.29133195
 C            3.21482941       -1.38739128        2.00419338
 C            2.60620231       -2.35207411        1.11682551
 C            2.82456163        1.00624231        1.58091956
 C            3.43272419       -0.18811162        1.20413580
 C            2.14152084        1.76542439        0.62100548
 C            0.59243548        2.50234136        2.29674427
 C            1.18467824        2.68571565        1.05406760
 C           -1.34080608        1.27273703        3.02432093
 C           -0.79601775        2.37319145        2.36474837
 C           -2.40501535       -0.86258652        2.67156358
 C           -2.30470785        0.49532883        2.37108633
 C           -1.53398014       -2.65515686        1.46485722
 C           -2.70171208       -1.80166109        1.61054994
 C            0.46914314       -2.93255569        0.16374450
 C           -0.91469104       -2.75848865        0.22326016
 C            1.08145657       -3.09246551       -1.07683076
 C            3.08731557       -2.02082641       -0.20670487
 C            3.40039652       -0.60048549       -0.18555278
 C            2.40180572       -2.52288128       -1.29565705
 C            2.22768339        1.43514438       -0.74286881
 C            2.81566753        0.22524964       -1.13775592
 C            1.59666742        2.24553304       -1.69910438
 C            0.52367626        3.48073650        0.13293095
 C            0.69562745        3.22087661       -1.27978440
 C           -1.56469551        3.01863324        1.40758942
 C           -0.88125599        3.76309827        0.36476412
 C           -2.92829152        0.98806744        1.21691379
 C           -2.65273534        2.28517649        0.78744427
 C           -3.32380839       -1.33200145        0.47083689
 C           -3.52241118        0.10097512        0.31748478
 C           -1.63789624       -2.44021077       -0.93367144
 C           -2.89153322       -1.84115993       -0.81580170
 C            0.30836297       -2.87426027       -2.28862749
 C           -1.02459014       -2.48777168       -2.18857047
 C            2.31120433       -1.70258810       -2.48659365
 C            2.50321913       -0.32536730       -2.38060675
 C            1.18343716       -2.20909523       -3.24530130
 C            1.46951222        1.79097080       -3.01078727
 C            2.01179746        0.49975574       -3.37969476
 C            0.17355321        1.91832597       -3.65756223
 C           -0.61844348        3.26947239       -1.90615553
 C           -1.59478025        3.55036731       -0.88102920
 C           -2.62861049        2.57241704       -0.64148967
 C           -0.90717384        2.32633512       -2.88269566
 C           -3.47393370        0.39408092       -1.10852800
 C           -3.30682820       -0.86908632       -1.80712741
 C           -2.78910056        1.52651027       -1.54259834
 C           -2.00833019        1.46439557       -2.70892093
 C           -1.63448063       -1.85748004       -3.27496836
 C           -2.67697622       -0.87466687       -3.03696887
 C           -2.19597980        0.38362508       -3.57583691
 C            0.63205809       -1.41018835       -4.23640425
 C            1.15429137       -0.06592015       -4.41253568
 C            0.02797550        0.83314847       -4.60178147
 C           -0.81260206       -1.34211088       -4.35682410
 C           -1.18447699        0.05061094       -4.56309825
