   70
C70 / DATE: 7/ 1/2024 / Origin: Program Fullerene / C70 from database
 C            1.04851413       -0.18255274        4.67941132
 C            2.31522497       -0.49803661        4.05515686
 C            2.20223230       -1.81919815        3.46020091
 C            0.18479370       -1.34351407        4.53050816
 C            0.82066381       -2.23913694        3.58567078
 C           -1.14544521       -0.86367838        4.23876541
 C            0.30933157        0.97285744        4.20375036
 C           -1.08640480        0.58891649        4.16446495
 C            0.81774350        1.73447793        3.15260741
 C            2.81920758        0.39394114        3.03299278
 C            2.16098621        1.58784128        2.76618376
 C            2.78228265       -1.76207141        2.12751222
 C            3.25755333       -0.40869959        1.90322579
 C            2.12982820       -2.40577682        1.08830859
 C            0.15337894       -2.62904157        2.42695399
 C            0.92496680       -3.06331969        1.35326465
 C           -1.80467181       -1.33068320        3.03526683
 C           -1.16593976       -2.22027403        2.17864728
 C           -1.88297443        0.99983410        3.02392638
 C           -2.47954667       -0.19369331        2.45281133
 C           -0.07755407        2.43364700        2.32992720
 C           -1.38179989        1.96140282        2.14987355
 C            0.41317123        3.39557190        1.45842339
 C            2.62420090        2.29878788        1.66812810
 C            1.82672592        3.38779140        1.15191609
 C            3.17178789        0.14955423        0.62463367
 C            3.13580850        1.53995382        0.53406460
 C            2.39113620       -1.97626345       -0.20920396
 C            2.66839199       -0.62502932       -0.43193911
 C            1.96140571       -2.77383109       -1.25929153
 C            0.27303634       -3.69783684        0.30700198
 C            0.94326464       -3.76597540       -0.97595723
 C           -1.68171279       -2.36915339        0.88832951
 C           -1.11016215       -3.33042502        0.06416173
 C           -2.72567231       -0.19306092        1.08920231
 C           -2.42340005       -1.32385200        0.32105172
 C           -1.98820675        2.08258065        0.89453840
 C           -2.81161482        1.03571142        0.45328446
 C           -0.29967974        3.65982314        0.22233652
 C           -1.53765682        3.06428093       -0.00056561
 C            1.97228776        3.39104952       -0.29241674
 C            2.64379270        2.16760771       -0.67523199
 C            0.66959271        3.65419057       -0.86426644
 C            2.21095066       -0.00651779       -1.60655737
 C            2.05846618        1.38091550       -1.65390801
 C            1.63757293       -2.16161014       -2.53343755
 C            1.76273868       -0.78055167       -2.68244169
 C           -0.07083587       -3.67133289       -2.00566724
 C           -1.31024614       -3.25983855       -1.37070598
 C            0.46070126       -2.84182414       -3.06676026
 C           -2.64377990       -1.27630677       -1.06546029
 C           -2.00978411       -2.18927949       -1.91551865
 C           -3.36256083        1.05660241       -0.81547574
 C           -3.28337924       -0.15830265       -1.60821845
 C           -2.01019562        3.07013206       -1.31069164
 C           -3.08893528        2.18085670       -1.67747191
 C            0.31369680        3.01441309       -2.04607727
 C            1.09909838        1.94555502       -2.49727779
 C           -1.03375358        3.05165564       -2.38813490
 C            1.10418218       -0.15938198       -3.74393092
 C            0.70649156        1.23335870       -3.62316840
 C           -0.44111968       -2.10650180       -3.81705542
 C           -1.75780252       -1.84557926       -3.24730918
 C            0.02311171       -0.86780314       -4.40496021
 C           -3.02862638        0.22940960       -2.98634784
 C           -2.82287516        1.66907881       -3.01051372
 C           -1.53919328        2.19594749       -3.44625823
 C           -0.65878723        1.35644194       -4.11263128
 C           -2.22152301       -0.57513758       -3.77520776
 C           -1.11248062        0.03088344       -4.49644270
