   70
C70 / DATE: 7/ 1/2024 / Origin: Program Fullerene / C70 from database
 C            1.50915409        0.15671024        5.00151079
 C            0.73860189       -1.06995620        4.95491834
 C            1.53816402       -2.06327418        4.26381441
 C            2.66581090       -0.01387221        4.13428185
 C            2.69937023       -1.38896498        3.70052462
 C            2.60931792        1.01987183        3.12318975
 C            0.68797407        1.21349799        4.43597197
 C            1.47260375        1.86851467        3.42161208
 C           -0.57863174       -0.74981334        4.43124493
 C           -0.58111244        0.64985696        4.03211865
 C           -1.21575042       -1.66890694        3.61402460
 C            0.91788211       -2.83405756        3.20140329
 C           -0.45851548       -2.77743328        3.03689336
 C            2.72114158       -1.66357261        2.27602855
 C            1.76113774       -2.72168830        2.02513741
 C            2.84558030        0.71448910        1.77919723
 C            2.82041571       -0.62135727        1.34775525
 C            2.53337468        1.71014750        0.85282670
 C            0.82206067        2.41154563        2.33119793
 C            1.62153984        2.69710628        1.24455250
 C           -1.10320697        1.01108920        2.78545499
 C           -0.50635292        2.05253048        2.06261798
 C           -2.09902266       -1.17471516        2.57729556
 C           -1.98408735        0.14386158        2.13612709
 C           -1.01021019       -3.03368509        1.71815261
 C           -2.20560001       -2.22838159        1.58981322
 C            1.18710072       -2.78255553        0.76244518
 C           -0.16377073       -3.12410429        0.61618903
 C            2.48465391       -0.90176819        0.01640897
 C            1.82104109       -2.09921152       -0.26850136
 C            2.69081891        1.43883863       -0.50453161
 C            2.52549805        0.11943131       -0.94125663
 C            2.55748216        2.49890479       -1.39662636
 C            1.06798918        3.52002128        0.28618648
 C            1.72513353        3.61313302       -0.99582174
 C           -1.05143938        2.43175306        0.82601916
 C           -0.35831036        3.37581140        0.05951697
 C           -2.44323351        0.44915263        0.85356201
 C           -1.97492174        1.59108014        0.19524352
 C           -2.60536184       -1.87686848        0.31542648
 C           -3.03778481       -0.57093733        0.10898788
 C           -0.74153743       -3.03988742       -0.65577784
 C           -2.05621706       -2.56940015       -0.76155646
 C            1.42503837       -2.37795530       -1.56344780
 C            0.10685157       -2.94834258       -1.75728526
 C            2.19216277       -0.16178544       -2.27716874
 C            1.64708220       -1.39614104       -2.60270790
 C            2.27102368        2.23330915       -2.78735871
 C            2.01803346        0.86872171       -3.19147700
 C            0.69251081        3.77888757       -1.99828972
 C           -0.57895245        3.44701747       -1.37572092
 C            1.10887290        3.02898640       -3.16103773
 C           -2.28168580        1.77848668       -1.15919044
 C           -1.41158364        2.50879435       -1.97480352
 C           -3.61828824       -0.26663740       -1.11266318
 C           -3.26242418        0.98759958       -1.74832286
 C           -2.62327542       -2.36037675       -2.01584695
 C           -3.60862616       -1.29915270       -2.13505381
 C           -0.40153834       -2.47249152       -3.03169333
 C            0.52185839       -1.45640674       -3.52727866
 C           -1.76667694       -2.29924633       -3.18982081
 C            0.82492397        0.87402870       -4.02405099
 C            0.15171397        2.13314862       -3.76967419
 C           -1.15101481        2.08483435       -3.28955354
 C            0.04302324       -0.27737354       -4.10790930
 C           -3.18877527        0.75306866       -3.17549708
 C           -3.43084270       -0.65738407       -3.42170970
 C           -2.23392671       -1.21390310       -4.02843927
 C           -1.96454737        1.11337449       -3.85398700
 C           -1.32971732       -0.11599733       -4.31359094
