   70
C70 / DATE: 7/ 1/2024 / Origin: Program Fullerene / C70 from database
 C            1.45516374       -0.29924756        5.46108985
 C            0.60727558       -1.44566842        5.20608086
 C            1.21310655       -2.21666524        4.13255343
 C            2.59201095       -0.38857182        4.56179859
 C            2.34308970       -1.47201681        3.62353489
 C            2.80105174        0.93760202        4.03376454
 C            0.71089324        0.89373427        5.08666488
 C            1.61262059        1.73041405        4.33564405
 C           -0.65974660       -0.94820325        4.70198505
 C           -0.52292329        0.47093430        4.45225910
 C            0.15839922       -2.54550039        3.20304956
 C           -1.01821527       -1.78278415        3.58018397
 C            0.45020017       -2.59715306        1.84519105
 C            2.41124574       -1.22628956        2.24788458
 C            1.61627785       -1.98554418        1.37005011
 C            3.03798215        1.07507047        2.61436660
 C            3.01195503       -0.04772738        1.78550825
 C            1.15218813        2.29366586        3.08032500
 C            2.28175192        2.23066873        2.18550953
 C           -0.85837257        0.94425280        3.17937179
 C           -0.09621487        1.95014666        2.56490269
 C           -1.73110598       -1.21316692        2.53736389
 C           -1.72340678        0.17639215        2.39214704
 C           -0.63840618       -2.64004181        0.98890445
 C           -1.79462913       -1.95446383        1.37044682
 C           -0.40073015       -2.82900082       -0.36135302
 C            1.75862576       -1.79587597       -0.01345847
 C            0.78122781       -2.29831636       -0.89498136
 C            3.01219320        0.20317097        0.41583251
 C            2.65409285       -0.82332417       -0.45666425
 C            2.03804478        2.32671852        0.83102874
 C            2.81330595        1.52587801        0.01180109
 C           -0.33233055        2.24132244        1.21729855
 C            0.74248505        2.60597740        0.39847379
 C           -2.17201412        0.69571725        1.17779207
 C           -1.50595234        1.79115957        0.62291162
 C           -2.65669114       -1.50917576        0.37832514
 C           -2.91188161       -0.13752861        0.33463749
 C           -1.51997342       -2.98885498       -1.16636250
 C           -2.71505070       -2.26192886       -0.78829345
 C           -1.38111593       -2.91246428       -2.59808108
 C            0.89927050       -2.07320387       -2.27879954
 C           -0.17412920       -2.32884327       -3.12983635
 C            2.81639164       -0.61099847       -1.82017174
 C            1.89322501       -1.22776434       -2.75203883
 C            2.79166233        1.81931052       -1.33728470
 C            3.05074587        0.74650806       -2.27212682
 C            0.54097975        2.72705776       -0.98036251
 C            1.64360155        2.55944625       -1.82859730
 C           -1.79243468        2.16734287       -0.68999257
 C           -0.74978665        2.62954610       -1.50727298
 C           -3.49804202        0.42729682       -0.79220545
 C           -2.98130396        1.70067760       -1.25065652
 C           -3.30350579       -1.70163023       -1.98889201
 C           -2.51592435       -2.16667532       -3.11945777
 C           -3.75662240       -0.39112895       -1.96672060
 C           -0.55970649       -1.31556744       -4.10203434
 C           -2.01323216       -1.20179525       -4.08156006
 C            1.55324914       -0.24752079       -3.77754958
 C            2.24053421        0.98613500       -3.45227205
 C            1.44828867        2.17891635       -3.21724600
 C            0.24252225       -0.18470388       -4.24650945
 C           -0.90579010        2.69909977       -2.89457512
 C            0.17085317        2.22985034       -3.74398516
 C           -0.34378341        1.06819211       -4.45396132
 C           -3.20487108        1.77724887       -2.67997496
 C           -3.57000824        0.44738936       -3.14080820
 C           -2.61120875        0.04905089       -4.16047182
 C           -2.13670235        2.26001266       -3.52054804
 C           -1.79069949        1.20343919       -4.46357565
