   70
C70 / DATE: 7/ 1/2024 / Origin: Program Fullerene / C70 from database
 C            1.14132512        0.02963106        4.42058265
 C            2.47533238       -0.25178764        3.94274169
 C            2.53016537       -1.67588260        3.65769036
 C            0.37109776       -1.20236272        4.31587990
 C            1.15972557       -2.12872399        3.53591220
 C           -0.94440043       -0.84445296        3.82757556
 C            0.37193666        1.05945414        3.75364980
 C           -1.00105327        0.60661783        3.75214774
 C            0.85968888        1.66047385        2.59590973
 C            2.93783620        0.42948477        2.74951353
 C            2.03831230        1.18975078        2.00330911
 C            3.41052745       -1.84535848        2.52774524
 C            3.78621456       -0.51608846        2.06038710
 C            2.91941361       -2.56260086        1.36998518
 C            0.67251705       -2.53091588        2.29191054
 C            1.56175368       -2.87234314        1.25814780
 C           -1.51030736       -1.57421495        2.78888616
 C           -0.70076342       -2.43480702        2.03187784
 C           -2.66970793       -1.04911980        2.22400171
 C           -1.87204455        1.18297087        2.83665784
 C           -2.88610376        0.38613504        2.30807053
 C           -0.04345749        2.37214009        1.81364513
 C           -1.41547582        2.26161901        2.08114891
 C            0.38253381        2.86987314        0.58588845
 C            2.22155820        1.32450155        0.61912294
 C            1.41018074        2.21028952       -0.09289728
 C            3.74715355       -0.55289036        0.61233001
 C            3.57595562       -1.94533397        0.24051436
 C            3.01697419        0.40942283       -0.08273227
 C            3.08275447       -2.21621386       -1.02007314
 C            1.06318989       -3.19763351       -0.00857465
 C            1.86302194       -3.00133300       -1.13467943
 C           -1.21217634       -3.02716014        0.88256828
 C           -0.29987784       -3.40101668       -0.18143974
 C           -3.11312564       -1.48799251        0.91294901
 C           -2.41754811       -2.49428033        0.26923865
 C           -3.56727045        0.80369388        1.09117765
 C           -3.50636063       -0.30886266        0.15914111
 C           -2.32411266        2.89444143        1.24027749
 C           -3.35530386        2.08569319        0.61165701
 C           -0.41697787        3.79313059       -0.07558080
 C           -1.83006473        3.82188282        0.24029510
 C           -0.29889439        3.92967396       -1.51057598
 C            1.42873292        2.18558657       -1.49300491
 C            0.62903750        3.06705548       -2.21648461
 C            2.75588475        0.17764884       -1.43302274
 C            2.93392249       -1.10932744       -1.94191633
 C            1.99201029        1.09348444       -2.15341114
 C            1.24411127       -2.64233552       -2.40566020
 C            2.05736327       -1.58136787       -2.99220331
 C           -0.92542958       -3.05621308       -1.45133139
 C           -2.17939930       -2.38369612       -1.15809058
 C           -0.14741571       -2.59616222       -2.51004071
 C           -2.99722845       -0.11128652       -1.12517665
 C           -2.48871607       -1.20412462       -1.83280449
 C           -3.21765787        2.27559429       -0.81948888
 C           -2.55473385        3.55318126       -0.99053577
 C           -1.62105106        3.70430560       -2.08193203
 C           -2.84597498        1.19265976       -1.62035980
 C           -0.07897673        2.57039652       -3.38109647
 C           -1.48605544        2.61961392       -3.03111837
 C           -2.17049043        1.41829855       -2.82774547
 C            1.55150016        0.75690268       -3.43753380
 C            1.45983416       -0.64391046       -3.81448032
 C            0.39694599        1.43173997       -4.00722452
 C           -0.73880221       -1.75743508       -3.45467677
 C           -1.93610099       -1.01130256       -3.09067963
 C           -1.81235110        0.33351602       -3.62040068
 C            0.10080035       -0.88425964       -4.25243626
 C           -0.56390184        0.40193240       -4.36312720
