   70
C70 / DATE: 7/ 1/2024 / Origin: Program Fullerene / C70 from database
 C            1.03115146        0.01889544        5.02708586
 C            2.26706881       -0.44180943        4.44648230
 C            2.21210900       -1.89461006        4.42332582
 C            0.17475277       -1.14688072        5.23528106
 C            0.82513497       -2.27543890        4.61158961
 C           -1.14770996       -0.79224138        4.77379716
 C            0.25011189        1.00151435        4.30396800
 C           -1.12708395        0.63596189        4.52608504
 C            0.62183510        1.40151562        3.01405931
 C            2.61597818        0.00579905        3.11076825
 C            1.80335513        0.91562624        2.42930198
 C            2.59514715       -2.31597951        3.09315724
 C            3.10125655       -1.15348789        2.38735275
 C            0.31850119       -2.76177352        3.33305545
 C            1.47069363       -3.01139418        2.49146777
 C           -1.66313533       -1.41338549        3.56164274
 C           -0.82289068       -2.18675586        2.76678826
 C           -2.04427590        0.87861079        3.44711921
 C           -2.48311345       -0.40887396        2.92903364
 C           -0.34815878        2.00259588        2.19539828
 C           -1.70931429        1.83321323        2.50461944
 C            0.01110578        2.41979218        0.90610403
 C            1.97797358        1.03284848        1.04782241
 C            1.17881600        1.91354558        0.32603476
 C            2.95366848       -1.15706135        1.00995884
 C            2.70783006        0.05386409        0.36575854
 C            1.33013510       -2.87597777        1.12097201
 C            2.39429600       -2.29636654        0.44505271
 C           -0.94583894       -2.12864394        1.37007786
 C            0.05543298       -2.70206295        0.57745613
 C           -2.72814034       -0.47964668        1.56222991
 C           -1.93623218       -1.32782894        0.77240247
 C           -2.62290908        1.94150707        1.47538228
 C           -3.19718346        0.69651599        0.99173357
 C           -0.94997229        3.03194272        0.09451988
 C           -2.28721063        2.73467716        0.32200588
 C           -0.59016263        3.47475810       -1.17435541
 C            1.40796396        2.07661562       -1.04069022
 C            0.66724356        3.02423783       -1.73911893
 C            2.69719538        0.04020110       -1.03052668
 C            2.15763016        1.12072842       -1.73124183
 C            2.37541198       -2.37261251       -0.92997370
 C            2.79290490       -1.19906880       -1.66409871
 C           -0.04314241       -2.64807032       -0.81554824
 C            1.13684763       -2.79431906       -1.54729337
 C           -1.96066956       -1.19534943       -0.62665581
 C           -1.13427163       -2.00772461       -1.40806285
 C           -3.29768550        0.80290387       -0.44250445
 C           -3.08600488        2.20121064       -0.76560466
 C           -2.69217469       -0.15992852       -1.23266794
 C           -1.58866128        3.41703477       -2.23151831
 C           -2.72332579        2.52801658       -2.05849320
 C            0.49362056        2.90099985       -3.17871681
 C           -0.92197438        3.04851340       -3.46587089
 C            2.11037854        1.06579084       -3.12778985
 C            1.20817061        1.93256179       -3.86504102
 C            2.27414742       -1.36162756       -3.00699670
 C            1.19504967       -2.34554430       -2.92473540
 C            2.11521304       -0.22958425       -3.78893724
 C           -1.20255550       -1.92063009       -2.80184721
 C            0.00370196       -2.11578325       -3.59160206
 C           -2.51040437        0.12677213       -2.58532605
 C           -2.57371733        1.45328159       -3.02634704
 C           -1.64271866        1.92387408       -4.04096550
 C           -1.95143989       -0.83665680       -3.40926530
 C            0.51507907        1.11509814       -4.85287849
 C            1.08087404       -0.22070619       -4.80671803
 C           -0.01216333       -1.16861532       -4.69210186
 C           -0.93354846        0.99162223       -4.78381649
 C           -1.24999676       -0.41620660       -4.61158021
