   70
C70 / DATE: 7/ 1/2024 / Origin: Program Fullerene / C70 from database
 C            1.28789202        0.17143010        4.76753467
 C            2.45237301       -0.01960954        3.92848269
 C            2.41885041       -1.38813471        3.44405971
 C            0.45265915       -1.01494893        4.64429067
 C            1.09517872       -1.91289194        3.69778915
 C           -0.91147598       -0.58135915        4.39127649
 C            0.45159515        1.32619937        4.52848356
 C           -0.92565155        0.86787239        4.42190905
 C            0.71621065        2.16661256        3.37248678
 C            2.64939472        0.84189257        2.77112527
 C            1.71744821        1.82840777        2.45853871
 C            2.89158114       -1.37295688        2.07861277
 C            3.15849598        0.00282634        1.70620398
 C            2.26195543       -2.17021671        1.13667261
 C            0.35888038       -2.41522036        2.62751588
 C            0.99702090       -2.70728658        1.41686076
 C           -1.65247165       -1.23705371        3.41854635
 C           -1.02857078       -2.30030878        2.64848378
 C           -2.47924114       -0.46827116        2.49695999
 C           -1.54126393        1.59282642        3.32218802
 C           -0.57635344        2.57519157        2.86296465
 C           -2.29672246        0.90898410        2.36863635
 C           -0.65959113        2.98711879        1.54705677
 C            1.57883387        2.24260842        1.13019980
 C            0.51549679        3.08576929        0.80815901
 C            2.92080101        0.36391855        0.38556081
 C            2.25990938        1.56540284        0.10621171
 C            2.60008667       -1.95025374       -0.19323274
 C            2.92533737       -0.64418844       -0.57834637
 C            2.12817096       -2.86078459       -1.13008732
 C            0.23712107       -3.20672259        0.35546027
 C            0.90926289       -3.57570109       -0.80687872
 C           -1.76999341       -2.42264197        1.40710367
 C           -2.65553983       -1.27689737        1.30196088
 C           -1.11150097       -2.84980028        0.26620998
 C           -2.78751006       -0.64394032        0.07240505
 C           -2.48706912        1.50943338        1.11964724
 C           -1.83814322        2.72170781        0.86531876
 C           -2.95179464        0.73804732        0.04804986
 C           -2.04105228        3.37606151       -0.34155492
 C            0.43687031        3.61655323       -0.47187447
 C           -0.87873564        3.94466589       -1.00110746
 C            2.06614753        1.94319002       -1.23099168
 C            1.19694641        2.98822082       -1.53493049
 C            2.87998986       -0.27398645       -1.91485175
 C            2.39356348        1.05037416       -2.25141967
 C            2.08328932       -2.50520870       -2.53652601
 C            2.38565625       -1.20430332       -2.91468743
 C            0.15383684       -3.74031479       -2.03525759
 C            0.94196449       -3.18326062       -3.12343147
 C           -1.64803860       -2.50226671       -0.97254502
 C           -2.39165300       -1.31682322       -1.09108996
 C           -1.16743687       -3.15230938       -2.10289753
 C           -2.55854359       -0.69944100       -2.34163093
 C           -3.22965745        1.35094747       -1.16485436
 C           -2.85671389        2.74010758       -1.35377004
 C           -2.91563928        0.64404783       -2.39091550
 C           -0.91668853        3.54918543       -2.39786279
 C            0.32335193        2.86151451       -2.69437009
 C           -2.15917596        2.85181221       -2.62612748
 C           -2.10290213        1.52976405       -3.20885530
 C            1.49387921        0.91795572       -3.38821748
 C            1.50199765       -0.46913337       -3.81257911
 C            0.31304053        1.65699267       -3.39815520
 C           -0.90647245        1.03475365       -3.72810561
 C            0.04088052       -2.43802838       -3.98082079
 C           -1.28766756       -2.51104728       -3.39183603
 C           -1.86655554       -1.18957733       -3.44397576
 C            0.32244410       -1.04062598       -4.26284437
 C           -0.91858822       -0.30688096       -4.10633425
