   70
C70 / DATE: 7/ 1/2024 / Origin: Program Fullerene / C70 from database
 C            1.10581421        0.00826290        4.70807917
 C            2.32930448       -0.35728140        4.02940269
 C            2.23619579       -1.76987738        3.70389976
 C            0.26761325       -1.18061272        4.76524232
 C            0.84332169       -2.14491130        3.85061973
 C           -1.09653649       -0.75819777        4.55495155
 C            0.29309178        1.06881833        4.14929605
 C           -1.08453396        0.68629068        4.36975737
 C            0.62578159        1.62698065        2.91827016
 C            2.67951146        0.33459100        2.80580080
 C            1.83679141        1.30838056        2.28388638
 C            2.86129074       -1.96331821        2.41158682
 C            3.23088115       -0.65049115        1.89793559
 C            2.27376616       -2.86228815        1.53566047
 C            0.13626662       -2.55168271        2.71412398
 C            0.85221485       -3.15647252        1.68218375
 C           -1.82360735       -1.30933181        3.43187277
 C           -1.14243535       -2.03524070        2.45118945
 C           -2.05680478        0.98963817        3.33298258
 C           -2.72821650       -0.25907815        3.01554544
 C           -0.37158112        2.27863503        2.19115405
 C           -1.69560007        1.83369001        2.28169997
 C            0.01165445        3.05278214        1.10603665
 C            2.02377052        1.68877555        0.95686519
 C            1.28535226        2.75987500        0.47418068
 C            3.14136807       -0.42410505        0.52548139
 C            2.60977134        0.78836307        0.05832562
 C            2.53504179       -2.70083488        0.12098439
 C            3.14645952       -1.53211815       -0.32268032
 C            0.27581912       -3.21632177        0.35001811
 C            1.36931812       -3.18076914       -0.59987998
 C           -1.66163524       -2.06036443        1.14795481
 C           -0.87274941       -2.49118158        0.08213458
 C           -3.32604879       -0.37100022        1.77636991
 C           -2.86653392       -1.41982714        0.88057525
 C           -2.50633475        1.84866428        1.14170797
 C           -3.43488363        0.82241699        0.96482421
 C           -0.94837204        3.32955733        0.05601070
 C           -2.16522873        2.65124232        0.04977622
 C            1.12804121        2.93796878       -0.95629785
 C           -0.19532844        3.49190260       -1.17960329
 C            2.50583905        1.00106249       -1.32203692
 C            1.62417086        1.96971181       -1.82167376
 C            3.16491154       -1.31480199       -1.69151067
 C            3.04508916        0.04519121       -2.17478960
 C            1.15157510       -2.67166103       -1.87266089
 C            2.25740124       -2.10400263       -2.50153427
 C           -1.07383197       -1.97272839       -1.20333562
 C           -0.13045607       -2.21848153       -2.21097215
 C           -3.14678033       -0.97383795       -0.47443906
 C           -3.72326784        0.35744657       -0.37405142
 C           -2.23078660       -1.23566501       -1.49016204
 C           -2.85427796        2.49339331       -1.15363023
 C           -3.53547296        1.23683414       -1.42205544
 C           -0.82265066        3.26628192       -2.39314555
 C           -2.23057531        2.91728193       -2.39651699
 C            1.07659655        1.85420462       -3.10902356
 C           -0.15933037        2.44237199       -3.39007055
 C            2.57282808       -0.04075242       -3.54164261
 C            2.09136524       -1.40076512       -3.75367113
 C            1.53098419        0.86264194       -3.97455576
 C           -0.36267978       -1.72748921       -3.49605048
 C            0.76293996       -1.31805847       -4.31710433
 C            0.54681163        0.06699148       -4.68610953
 C           -2.31060074       -0.49094284       -2.67031099
 C           -2.99918189        0.72319190       -2.66736601
 C           -2.42555714        1.85427551       -3.36916729
 C           -1.17776111        1.65480164       -4.07392605
 C           -1.41690583       -0.75183289       -3.70479299
 C           -0.85240709        0.36380797       -4.46161928
