   70
C70 / DATE: 7/ 1/2024 / Origin: Program Fullerene / C70 from database
 C            1.31349806        0.27461213        4.63989079
 C            2.54445777        0.03876611        3.91557298
 C            2.53116153       -1.34549542        3.47138945
 C            0.48523577       -0.91451501        4.49869341
 C            1.18309442       -1.83993645        3.62371754
 C           -0.85180084       -0.48620384        4.12456373
 C            0.50753621        1.41814142        4.27070451
 C           -0.86534166        0.96333104        4.12663318
 C            0.84297599        2.16217065        3.06883044
 C            2.85511443        0.85676611        2.75274298
 C            1.92999616        1.77979250        2.27597590
 C            3.12101926       -1.37846141        2.15467637
 C            3.50814546       -0.01981852        1.80655585
 C            2.53729192       -2.15930415        1.16280920
 C            0.50947753       -2.32982359        2.50873704
 C            1.18932975       -2.53605656        1.29658332
 C           -1.49570960       -1.14012214        3.08158959
 C           -0.88026353       -2.25020291        2.49861463
 C           -2.44663373       -0.43491049        2.34352023
 C           -1.43953631        1.64506688        2.97776872
 C           -0.41142853        2.50308269        2.42133030
 C           -2.23993445        0.92309713        2.09812979
 C           -0.40142042        2.71487225        1.05380113
 C            1.90256192        2.07419461        0.91049938
 C            0.82701582        2.81046144        0.41583945
 C            3.51745329        0.31097198        0.45833899
 C            2.76081089        1.40826344        0.01817590
 C            3.07490250       -2.01167940       -0.11295688
 C            3.72547407       -0.74826211       -0.41565620
 C            2.27731389       -2.35952419       -1.27146700
 C            0.45082032       -2.88733075        0.15731438
 C            0.91425488       -2.52744989       -1.10300949
 C           -1.57100716       -2.95709853        1.52624950
 C           -0.87484666       -3.27511954        0.29309602
 C           -3.27804453       -1.15114066        1.49427028
 C           -2.90844315       -2.51759917        1.17861517
 C           -3.74312003       -0.52670963        0.26786968
 C           -2.41819462        1.41250402        0.80190546
 C           -1.52130772        2.36611943        0.29935472
 C           -3.30721431        0.75975571       -0.05484581
 C           -1.54939987        2.72439264       -1.05090818
 C            0.84587700        3.24947607       -0.89418837
 C           -0.41355721        3.30477159       -1.61820048
 C            2.68211014        1.69366549       -1.35553796
 C            1.85875606        2.72926381       -1.79075635
 C            3.61779123       -0.52454637       -1.83607436
 C            2.76397398       -1.57015640       -2.38192599
 C            3.09462707        0.74292481       -2.29180588
 C            1.80203221       -0.93102131       -3.25428845
 C            2.23906993        0.44184635       -3.42769095
 C            0.01438690       -2.05736081       -2.07067662
 C            0.44506995       -1.18283531       -3.08104145
 C           -1.78936284       -3.04573912       -0.81325523
 C           -3.08338623       -2.71191272       -0.24762357
 C           -3.77920715       -1.55388006       -0.76740264
 C           -1.34760110       -2.34601126       -1.93568642
 C           -3.51838278       -1.17695929       -2.07384591
 C           -2.28108273       -1.63924026       -2.69623347
 C           -3.45345986        1.20578680       -1.36448026
 C           -2.53711620        2.20415512       -1.88492568
 C           -3.67075499        0.22287859       -2.41071446
 C           -0.46843145       -0.32410904       -3.69252472
 C           -1.82684143       -0.59903974       -3.60137550
 C           -2.20674713        1.83626814       -3.25938143
 C           -2.75216931        0.51463614       -3.49194518
 C           -0.12183972        3.06451901       -3.01760769
 C            1.26841044        2.65226160       -3.11836926
 C            1.30889030        1.38667718       -3.82786962
 C           -0.92946851        2.09703086       -3.73103481
 C           -0.06688130        0.96705234       -4.04905375
