   70
C70 / DATE: 7/ 1/2024 / Origin: Program Fullerene / C70 from database
 C            1.63560742        0.01392528        4.53946631
 C            0.82122852       -1.18518830        4.46314747
 C            1.34951563       -2.02692050        3.40153111
 C            2.64799020       -0.07580006        3.50607471
 C            2.54909272       -1.38603209        2.88972542
 C            2.52647635        1.08687483        2.64335781
 C            0.78349705        1.14230530        4.21716130
 C            1.35205879        1.82551338        3.06528163
 C           -0.56733141       -0.77318536        4.38605892
 C           -0.58294204        0.65797149        4.11923266
 C           -1.44348581       -1.58622252        3.68679161
 C            0.45381624       -2.61540129        2.50683252
 C           -0.89491122       -2.65181148        2.86024442
 C            0.84071618       -2.79343651        1.16815501
 C            2.81216637       -1.47669643        1.53359666
 C            2.14581982       -2.45134359        0.79701756
 C            2.74689839        0.90218646        1.28389601
 C            3.24908405       -0.32855567        0.87301041
 C            2.04655241        1.68183093        0.35736726
 C            0.48185434        2.29983327        2.09352983
 C            0.91835126        2.39787795        0.76851137
 C           -1.37463814        1.15680488        3.08797044
 C           -0.88557404        2.23263688        2.34814106
 C           -2.50483517       -0.96818724        2.91525219
 C           -2.38589093        0.36416450        2.53450141
 C           -1.88858151       -2.96406364        1.85789483
 C           -2.91730485       -1.93645883        1.92105072
 C           -0.11620572       -3.03624475        0.16733156
 C           -1.46816864       -3.07864335        0.48122177
 C            0.22657637       -2.83322264       -1.16746575
 C            2.56624644       -2.67282742       -0.51024362
 C            1.56433647       -2.91943380       -1.52863357
 C            3.68080443       -0.45260724       -0.43571605
 C            3.53631624       -1.74874051       -1.07069913
 C            2.29050787        1.48862282       -1.00512849
 C            3.25500456        0.55427728       -1.39153675
 C            1.40528107        2.00564724       -1.95484428
 C            0.06006570        2.96028458       -0.17965229
 C            0.30327200        2.76352063       -1.54697805
 C           -1.74403042        2.86702297        1.46853867
 C           -1.17949738        3.43293936        0.26057282
 C           -3.01426683        0.79826595        1.36473507
 C           -2.94508862        2.15666883        1.07296494
 C           -3.16391133       -1.47372856        0.56909486
 C           -2.38297142       -2.29868895       -0.33084976
 C           -3.22466625       -0.11108106        0.31698136
 C           -0.69621298       -2.21817249       -2.02153006
 C           -1.89368465       -1.73256067       -1.50296763
 C           -0.31291767       -1.80934870       -3.29089179
 C            2.02478534       -2.32113869       -2.77116565
 C            3.20325991       -1.52810689       -2.46424975
 C            3.16465684       -0.09175584       -2.69004250
 C            1.09378766       -1.80467364       -3.65913411
 C            1.48998799        1.58270970       -3.28618679
 C            2.27099976        0.40556518       -3.62281802
 C            1.37600679       -0.52691890       -4.29072009
 C           -0.93388758       -0.62407330       -3.85781881
 C            0.28546610        1.53382686       -4.09885983
 C            0.11253755        0.15167223       -4.50375944
 C           -0.67844674        3.07352937       -2.49343805
 C           -0.83077810        2.20557846       -3.64028867
 C           -2.28228982        3.57289738       -0.66549140
 C           -3.29940881        2.61653829       -0.25660067
 C           -2.03157069        3.36369965       -2.06871325
 C           -3.08440815        0.31484951       -1.00384517
 C           -2.35231050       -0.47257187       -1.90794158
 C           -1.90311975        0.06333951       -3.12674549
 C           -2.03148166        1.42975007       -3.37191508
 C           -3.40352118        1.63167148       -1.31031135
 C           -2.85228479        2.23904028       -2.49905880
