   70
C70 / DATE: 7/ 1/2024 / Origin: Program Fullerene / C70 from database
 C            1.40059582        0.00248236        4.97938299
 C            0.60848002       -1.18271110        4.71243881
 C            1.43831648       -2.11100033        3.97898165
 C            2.62375010       -0.10378402        4.20077695
 C            2.66211088       -1.41924185        3.60535494
 C            2.68135878        1.04267336        3.32159090
 C            0.65852820        1.15151210        4.48499437
 C            1.52423701        1.88327361        3.59097671
 C           -0.63732390       -0.75618435        4.10568518
 C           -0.60648986        0.68806994        3.96023842
 C           -1.17970740       -1.48967902        3.06021775
 C            0.89144588       -2.70381119        2.77607994
 C           -0.45053523       -2.53427914        2.47035492
 C            2.80136137       -1.52344914        2.16282649
 C            1.84215229       -2.51067693        1.70297538
 C            3.07397564        0.88652512        1.99408555
 C            2.99726262       -0.38076113        1.38924062
 C            2.93068853        2.01288435        1.19237811
 C            0.95804326        2.55395689        2.51226655
 C            1.83097739        2.91399455        1.49055658
 C           -1.07420869        1.24165265        2.76793581
 C           -0.39007789        2.32404190        2.19715520
 C           -2.14973464       -0.85972249        2.28673732
 C           -1.96640141        0.49468568        1.98489632
 C           -2.87854304       -1.66123082        1.42123762
 C           -0.86336990       -2.96137001        1.21425502
 C           -2.22209977       -2.86718119        0.96230236
 C            1.34375565       -2.40401858        0.40735235
 C            0.03730480       -2.82441841        0.14319338
 C            2.75121359       -0.47288832        0.01661251
 C            1.94500368       -1.51227144       -0.47408697
 C            3.01325761        1.88321431       -0.24558363
 C            3.05857147        0.61412789       -0.80194136
 C            1.31074796        3.42353693        0.23603663
 C            2.12083963        2.87059918       -0.83517839
 C           -0.93599182        2.93704822        1.07280881
 C           -0.05671072        3.51739578        0.06876991
 C           -2.41450463        1.00946040        0.76062155
 C           -2.03042110        2.28446609        0.37617468
 C           -3.50156598       -1.06191235        0.26195627
 C           -3.03514991        0.17552372       -0.17119883
 C           -2.70848415       -3.15912667       -0.36310488
 C           -3.69294020       -2.13949290       -0.68610731
 C           -0.44416511       -2.75172884       -1.17341818
 C           -1.74675531       -3.17496445       -1.44015985
 C            1.53226562       -1.50075618       -1.80333411
 C            0.27015741       -2.01775941       -2.13882874
 C            2.85036970        0.51061983       -2.17046226
 C            2.22283878       -0.68608131       -2.68934664
 C            1.55370093        2.58154693       -2.07415857
 C            2.22156344        1.63134302       -2.84724678
 C           -0.62503245        3.24449848       -1.23604972
 C           -1.90446518        2.58294563       -1.03680733
 C            0.18709512        2.83614926       -2.29306198
 C           -2.97240253        0.48003504       -1.54409442
 C           -2.32568452        1.64570618       -1.97387599
 C           -3.55702375       -1.85184946       -2.09142365
 C           -2.44286109       -2.64775202       -2.59017631
 C           -3.30347525       -0.48520799       -2.49771055
 C           -0.33075688       -1.69850611       -3.37446358
 C           -1.70946810       -1.81161350       -3.50729692
 C           -2.48397369       -0.59362445       -3.68412173
 C            1.62336302       -0.33520508       -3.95648150
 C            1.62378897        1.11874889       -4.05938675
 C            0.28543456       -0.79631038       -4.23547078
 C           -0.45504787        2.32074327       -3.41884390
 C           -1.76130976        1.69765962       -3.25222792
 C           -1.81686204        0.53488111       -4.12803402
 C            0.28598884        1.54353533       -4.39274411
 C           -0.48700128        0.35103293       -4.68302091
