   70
C70 / DATE: 7/ 1/2024 / Origin: Program Fullerene / C70 from database
 C            1.69520210       -0.18635369        5.00251104
 C            0.84627308       -1.35024427        5.17487289
 C            1.28099914       -2.35835255        4.22667683
 C            2.62655911       -0.46956818        3.92358774
 C            2.34239982       -1.79039907        3.40886713
 C            2.56846865        0.63733055        2.99963585
 C            0.85579597        0.91766909        4.56849614
 C            1.47825150        1.50808358        3.40487105
 C           -0.50597254       -0.97227155        4.80564000
 C           -0.49872043        0.43245784        4.42857504
 C            0.09829745       -2.86618861        3.55523819
 C           -0.98999159       -1.93937131        3.83090274
 C            0.24961562       -3.33119918        2.26082964
 C            2.28187840       -1.97572259        2.02796316
 C            1.47637910       -3.00352734        1.55116252
 C            2.70190360        0.38616163        1.64211871
 C            2.62665959       -0.92561816        1.16098193
 C            2.32409123        1.40465824        0.78332750
 C            0.66729289        2.02008504        2.39653019
 C            1.25422673        2.22156015        1.15789364
 C           -1.21579310        0.79926176        3.29581509
 C           -0.70990425        1.78337217        2.43280726
 C           -1.76759952       -1.46562392        2.77435952
 C           -2.12537806       -0.11919820        2.78656939
 C           -0.83552320       -3.13945782        1.31621679
 C           -1.78527865       -2.15670625        1.55543359
 C            1.17767162       -3.07039119        0.13954686
 C           -0.25563879       -3.23424157       -0.00430340
 C            2.52140580       -1.10829032       -0.22748459
 C            1.81160916       -2.20513844       -0.73587341
 C            2.63161719        1.27443827       -0.56318528
 C            2.77161504       -0.01764485       -1.07613679
 C            2.29119777        2.33228746       -1.40078619
 C            0.51356872        2.84867197        0.16953257
 C            1.18407779        3.17976397       -0.99994469
 C           -1.49413046        2.15788489        1.32880928
 C           -0.87788019        2.67323934        0.16975776
 C           -3.02649540        0.32920480        1.84257194
 C           -2.78232492        1.62924186        1.25237263
 C           -2.48089152       -1.60661123        0.47393672
 C           -3.35458879       -0.55999761        0.74921603
 C           -0.86548082       -2.58095787       -1.06425963
 C           -2.00963393       -1.80158765       -0.84008862
 C            1.28991696       -2.11943984       -2.02273030
 C           -0.08825178       -2.32709630       -2.18993880
 C            2.73804742       -0.22579457       -2.45591504
 C            2.00779941       -1.37470148       -2.94794084
 C            2.21588985        2.13879824       -2.83568744
 C            2.47297915        0.88263559       -3.36083359
 C            0.42771204        3.51880517       -2.17856768
 C            1.07196267        2.89386311       -3.32225952
 C           -1.61818087        2.83700328       -1.02078452
 C           -0.97264097        3.17534479       -2.20480522
 C           -3.49785392        1.64779818       -0.00196276
 C           -3.84706457        0.27046067       -0.32442136
 C           -2.84919732        2.21347740       -1.15830508
 C           -2.57499745       -1.08986794       -1.91638789
 C           -3.39041373        0.00750988       -1.66788224
 C           -3.03607965        1.28583079       -2.26066904
 C           -0.74068281       -1.89339445       -3.33382208
 C           -1.97067519       -1.14706956       -3.17183461
 C            1.41535732       -1.03059243       -4.22429857
 C            1.64601680        0.38551422       -4.45114630
 C            0.00781124       -1.29179395       -4.42024568
 C            0.04876520        2.21479293       -4.09927380
 C           -1.21735411        2.36265627       -3.39024694
 C           -2.12462162        1.30089074       -3.31309576
 C           -1.82827653        0.08755517       -3.93310411
 C            0.35945904        1.01172721       -4.71864549
 C           -0.64125745       -0.03562232       -4.76076007
