   70
C70 / DATE: 7/ 1/2024 / Origin: Program Fullerene / C70 from database
 C            1.23358796       -0.24493201        4.30630603
 C            2.45266434       -0.59363043        3.61619245
 C            2.32123517       -1.95979755        3.13322763
 C            0.38460914       -1.42413069        4.33870076
 C            1.02996696       -2.46529921        3.56213346
 C           -0.96063326       -1.01194126        3.97890753
 C            0.44220528        0.85712852        3.79508734
 C           -0.93897693        0.42026513        3.71665091
 C            0.93500543        1.66042348        2.77487128
 C            2.86749584        0.22621059        2.49630967
 C            2.18738963        1.40320174        2.19424326
 C            2.64446033       -1.95988275        1.71515712
 C            3.19766306       -0.65803449        1.39923725
 C            1.76951029       -2.55503018        0.81248619
 C            0.26604970       -3.19401554        2.66254609
 C            0.73511271       -3.35701216        1.29313581
 C           -1.73695991       -1.82664077        3.16206281
 C           -1.17250463       -2.97885179        2.60211022
 C           -2.86061276       -1.25669249        2.57321249
 C           -1.76222534        0.93664688        2.71384787
 C           -2.85817711        0.17417847        2.30498178
 C            0.02207006        2.44258063        2.07728465
 C           -1.27236221        1.94606058        1.86974635
 C            0.52598687        3.42805517        1.24034690
 C            2.48910839        2.01563383        0.97567962
 C            1.83806808        3.20690084        0.66632340
 C            3.04826932       -0.15980352        0.11509084
 C            3.01091082        1.22113987       -0.05263258
 C            1.71271579       -2.07638631       -0.49809632
 C            2.48636750       -0.96958994       -0.87203223
 C            0.73654320       -2.56744004       -1.36395333
 C           -0.43061015       -3.59737066        0.45823213
 C           -1.61106856       -3.45419955        1.29628071
 C           -0.44496135       -3.10246622       -0.84137923
 C           -3.50232227       -1.92002904        1.45365695
 C           -2.77547999       -2.95086031        0.73982617
 C           -3.40507992        0.37178886        0.97446779
 C           -3.89353514       -0.89853328        0.49601307
 C           -1.92706540        2.19503348        0.65570357
 C           -2.72460182        1.20579470        0.10387498
 C           -0.32744156        3.97449013        0.20791728
 C           -1.50215237        3.22208759       -0.16962732
 C            1.82122670        3.69923701       -0.70067905
 C            0.47737789        4.17880046       -0.98215087
 C            3.10879247        1.71852907       -1.34510408
 C            2.50224610        2.99585428       -1.68208401
 C            2.44293441       -0.49370053       -2.18724556
 C            2.88423677        0.80441109       -2.45332033
 C            0.80634407       -2.25068017       -2.71262160
 C            1.65777967       -1.15240901       -3.13514039
 C           -0.43048764       -2.16030950       -3.45584502
 C           -1.67207782       -2.83250843       -1.46245913
 C           -2.79388186       -2.60602351       -0.67074424
 C           -3.48039208       -1.33309002       -0.81700760
 C           -1.66969180       -2.22479984       -2.71293535
 C           -2.54891934        0.85440259       -1.24439583
 C           -2.94970006       -0.40754780       -1.71083731
 C           -2.33005478       -0.93258747       -2.83731167
 C           -1.43999951        2.96760188       -1.59841310
 C           -0.25112692        3.62831968       -2.11407750
 C           -1.80148828        1.70520401       -2.07492113
 C            1.90030204        2.86578200       -2.99876520
 C            2.25387489        1.55784940       -3.52096772
 C            0.46180986        3.03077226       -3.14152155
 C            0.92585177       -0.37880671       -4.13484666
 C           -0.42168180       -0.90605229       -4.18390778
 C           -1.49817304       -0.08252261       -3.66243739
 C           -1.20353024        1.20840880       -3.23957887
 C            1.07717008        0.99839919       -4.15029511
 C           -0.05896675        1.82241585       -3.75451728
