   70
C70 / DATE: 7/ 1/2024 / Origin: Program Fullerene / C70 from database
 C            1.37050334       -0.07748527        5.14365712
 C            0.57896049       -1.23267702        4.75635687
 C            1.42239018       -2.08272419        3.94939057
 C            2.57461881       -0.07957609        4.32963093
 C            2.65833667       -1.36141715        3.67403524
 C            2.55471393        1.10869348        3.50378968
 C            0.60653033        1.11034878        4.80438980
 C            1.37947725        1.89152676        3.85785873
 C           -0.66432629       -0.74782490        4.18408136
 C           -0.71972012        0.68730612        4.41309008
 C           -1.12050395       -1.25534618        2.96360784
 C            0.91011777       -2.55054424        2.67913187
 C           -0.38752169       -2.23982676        2.28429474
 C            2.86607649       -1.39124662        2.23723931
 C            1.96501411       -2.38974962        1.70207488
 C            2.91874822        1.03866026        2.16123492
 C            3.03346932       -0.20787607        1.51793468
 C            2.63789120        2.16281568        1.39659603
 C            0.71413346        2.58499924        2.84503547
 C            1.44143176        2.92773316        1.70759015
 C           -1.40082236        1.46809622        3.49534522
 C           -0.67869708        2.50396942        2.76063964
 C           -2.10858617       -0.54380418        2.27178263
 C           -2.27738153        0.81277078        2.54517793
 C           -2.58801650       -1.03535981        1.05427820
 C           -0.72500040       -2.51337895        0.96432493
 C           -2.00107618       -2.18741099        0.53267085
 C            1.59340835       -2.28603414        0.37062386
 C            0.29628179       -2.63593270        0.01508962
 C            2.90578785       -0.27657218        0.12463203
 C            2.27389866       -1.39371515       -0.44825859
 C            2.75927926        2.09703648       -0.04107561
 C            3.07968210        0.88496246       -0.63197840
 C            0.75359377        3.19288763        0.45157454
 C            1.67432361        2.87624438       -0.61715022
 C           -1.34029546        2.65944558        1.46917652
 C           -2.45166560        1.72689084        1.43551730
 C           -0.58115864        2.85032507        0.31670155
 C           -3.21543216       -0.13901735        0.18232861
 C           -2.82806132        1.19590466        0.21759392
 C           -3.79521403       -0.61849747       -0.98548529
 C           -2.39749802       -2.64982188       -0.71527383
 C           -3.47819115       -1.96913982       -1.39910707
 C           -0.03523146       -2.65929810       -1.33834080
 C           -1.35876846       -2.92614071       -1.69063684
 C            1.98737148       -1.40414053       -1.81264435
 C            0.82760507       -2.05865949       -2.26339216
 C            2.95357195        0.81396407       -2.01300204
 C            2.61735155       -0.45675336       -2.61172400
 C            1.18901243        2.48011166       -1.85519299
 C            2.09298994        1.79343101       -2.65470243
 C           -1.05129220        2.35484907       -0.90549495
 C           -2.31888654        1.77096760       -0.94169173
 C           -0.18414237        2.22313430       -2.00663216
 C           -3.75036573        0.22799339       -2.16686998
 C           -2.86148847        1.37881541       -2.15494173
 C           -3.17247040       -1.94986999       -2.81969525
 C           -1.85970628       -2.54708575       -3.00284511
 C           -3.40027580       -0.60263826       -3.30511874
 C            0.43364171       -1.96512402       -3.60001105
 C           -0.98047919       -1.99128618       -3.92287179
 C            2.10397434       -0.15636779       -3.93344236
 C            1.64619193        1.22577630       -3.90262151
 C            1.02427839       -0.95958192       -4.45699634
 C           -0.66518180        1.68407881       -3.21496844
 C           -1.99948780        1.29003265       -3.31543246
 C           -2.33239202        0.06013321       -4.02754532
 C           -1.30084193       -0.70994342       -4.54801872
 C            0.22941200        1.21704223       -4.18042299
 C           -0.04389041       -0.04907841       -4.83489235
