   70
C70 / DATE: 7/ 1/2024 / Origin: Program Fullerene / C70 from database
 C            1.64163069        0.00469000        4.62981328
 C            0.80524041       -1.14734777        4.35194534
 C            1.38605740       -1.87401266        3.23408296
 C            2.67610924        0.05278859        3.61242548
 C            2.50310518       -1.08721465        2.74370485
 C            2.64805698        1.36759498        3.01551386
 C            0.81834938        1.19108562        4.47178936
 C            1.52143307        2.09293503        3.58772430
 C           -0.56064418       -0.67903704        4.22510141
 C           -0.50695693        0.76753154        4.07921641
 C           -1.40249661       -1.39248350        3.39254777
 C            0.52409583       -2.46292582        2.30579294
 C           -0.83631183       -2.46770669        2.59286160
 C            0.93062924       -2.57385466        0.96814186
 C            2.61463854       -0.91294267        1.37582896
 C            2.09083843       -1.90607479        0.56272092
 C            2.87976572        1.50000406        1.64699708
 C            2.85057770        0.35879771        0.82775754
 C            2.57017509        2.73723218        1.08675501
 C            0.78760859        2.90113349        2.72888898
 C            1.52650584        3.51869369        1.72707345
 C           -1.08311522        1.36884388        2.96085860
 C           -0.55862155        2.57378031        2.48000342
 C           -2.29689282       -0.66186229        2.51446105
 C           -2.00195690        0.65304231        2.18413513
 C           -1.77302295       -2.71370141        1.52392317
 C           -2.68045193       -1.57768795        1.46068771
 C            0.04219103       -3.08519151        0.00364602
 C           -1.31880475       -3.22889916        0.32300940
 C            0.46636426       -3.21356441       -1.33165369
 C            2.45828319       -1.90067771       -0.76772066
 C            1.67219973       -2.64244674       -1.72700225
 C            2.79697509        0.50887662       -0.56493332
 C            2.82325358       -0.62876986       -1.36430994
 C            2.38005480        2.85282139       -0.34671741
 C            2.31225388        1.69566002       -1.10956594
 C            0.85373095        4.29610534        0.71239862
 C            1.40489167        3.90309786       -0.57491343
 C           -1.26617651        3.24319910        1.48168106
 C           -0.58648129        4.20512230        0.63307462
 C           -2.39344570        1.14052009        0.93584721
 C           -2.18129914        2.48270418        0.64522599
 C           -3.01296611       -1.08404178        0.20210638
 C           -2.69353529        0.24650985       -0.10336516
 C           -2.25045725       -3.21054043       -0.70218382
 C           -3.08120090       -2.02208918       -0.82436825
 C           -0.43260925       -3.61240879       -2.32145397
 C           -1.84521964       -3.61518665       -2.02336693
 C           -0.28938814       -3.08066461       -3.66855569
 C            1.75260292       -1.92435247       -2.98906142
 C            2.22669034       -0.57968777       -2.68774502
 C            0.75470113       -2.10561940       -3.93445827
 C            1.45387479        1.65122270       -2.21468362
 C            1.46670428        0.53140285       -3.05237387
 C            0.29751748        3.63088988       -1.46546415
 C           -0.93266624        3.90310528       -0.74335104
 C           -1.96003331        2.87329504       -0.73451290
 C            0.33599773        2.49075479       -2.25405190
 C           -2.48239740        0.63828538       -1.43638052
 C           -1.90024651        1.87828905       -1.70279136
 C           -0.87681494        1.94411456       -2.64546466
 C           -2.99799123       -1.58679279       -2.20072692
 C           -2.49538951       -2.72062454       -2.96447162
 C           -1.56475769       -2.48897840       -4.04898170
 C           -2.53691330       -0.30278382       -2.46848293
 C            0.12781804       -0.93591022       -4.51877837
 C            0.41906129        0.37525607       -3.96108395
 C           -0.85294380        1.00820268       -3.66163640
 C           -1.31331634       -1.12438483       -4.45587247
 C           -1.85445835       -0.03712147       -3.65725817
