   70
C70 / DATE: 7/ 1/2024 / Origin: Program Fullerene / C70 from database
 C            1.46532621        0.08022737        4.85306439
 C            0.67710985       -1.13471748        4.71942233
 C            1.53148238       -2.14177651        4.13997307
 C            2.67829189       -0.09664018        4.07500780
 C            2.78045770       -1.49955419        3.75057265
 C            2.65444481        0.86253306        2.98523147
 C            0.71051875        1.16094981        4.24750619
 C            1.49520105        1.71913732        3.16817322
 C           -0.55384713       -0.79359689        4.02994382
 C           -0.60022079        0.65361837        3.91776495
 C           -0.99344841       -1.55792195        2.94044772
 C            1.04436830       -2.87413647        2.98958913
 C           -0.25307498       -2.67749077        2.52307650
 C            3.04332834       -1.86512992        2.37409379
 C            2.12385944       -2.93168703        2.02036299
 C            2.97336396        0.45665728        1.68971164
 C            3.30614454       -0.88234088        1.42551860
 C            2.57599249        1.28121235        0.63508498
 C            0.82316833        2.15796461        2.03215666
 C            1.50600864        2.16519934        0.82653592
 C           -1.23748232        1.17406815        2.80703198
 C           -0.57088156        2.10032006        1.99488745
 C           -1.94143118       -0.98018201        2.07815080
 C           -2.20832623        0.38458472        2.21779467
 C           -2.34616452       -1.65195566        0.91665836
 C           -0.56571360       -3.28290743        1.31491153
 C           -1.72669729       -2.84546698        0.57030813
 C            1.80438124       -3.12236632        0.67639632
 C            0.50774124       -3.52539630        0.35825836
 C            3.36334605       -1.30839486        0.10452808
 C            2.57011033       -2.46503763       -0.28840571
 C            3.00757597        0.98703182       -0.65825943
 C            3.29150293       -0.33614920       -0.96713185
 C            2.62832047        1.82437333       -1.70111491
 C            0.90002678        2.75686353       -0.27336943
 C            1.65154008        2.85946526       -1.43336035
 C           -1.23762936        2.55689447        0.84962519
 C           -0.50105546        2.83796757       -0.31752662
 C           -3.06280440        1.01558873        1.33503006
 C           -2.59645647        2.25819247        0.75273378
 C           -3.14092519       -0.99947246       -0.03211209
 C           -3.67057363        0.24765650        0.27252973
 C           -3.14262669       -1.44147315       -1.35775626
 C           -1.46558286       -3.12997848       -0.82889109
 C           -0.02715690       -3.27176818       -0.96997649
 C           -2.15952960       -2.41850836       -1.78937740
 C            2.00918268       -2.18958769       -1.60442725
 C            2.59813593       -0.95664534       -2.08621178
 C            0.66697618       -2.43802062       -1.84357347
 C            2.23148285        1.21050374       -2.95464426
 C            1.87574115       -0.13642796       -2.94329301
 C            1.00183544        3.17621546       -2.68441923
 C            1.41337146        2.17436162       -3.65879559
 C           -1.16541190        3.09506250       -1.53505310
 C           -0.43929723        3.25012908       -2.71352401
 C           -3.28703252        2.42850129       -0.50295258
 C           -3.98151482        1.18236367       -0.79642975
 C           -2.51691675        2.78795123       -1.66733660
 C           -3.29910261       -0.48757768       -2.44849803
 C           -3.67894681        0.81812292       -2.16815483
 C           -2.94166655        1.92342186       -2.75762517
 C           -1.41323145       -1.81164103       -2.87562165
 C           -0.03751643       -1.62675408       -2.73616039
 C            0.58053033       -0.51530701       -3.32793968
 C           -2.23712052       -0.74357732       -3.41257982
 C            0.22893947        1.70381447       -4.33971150
 C           -0.87921912        2.53241732       -3.89921030
 C           -2.05143872        1.68065298       -3.79560760
 C           -0.17000655        0.32124277       -4.15998299
 C           -1.61975672        0.31432097       -4.06304805
