   70
C70 / DATE: 7/ 1/2024 / Origin: Program Fullerene / C70 from database
 C            1.49816119        0.07833119        4.81231126
 C            0.71643926       -1.12284133        4.58610841
 C            1.45724848       -1.98576192        3.68361209
 C            2.70354227       -0.01951579        4.00962363
 C            2.68335924       -1.29252881        3.31195255
 C            2.80986811        1.19160795        3.22500382
 C            0.72740626        1.20299299        4.31030149
 C            1.54199607        1.89908466        3.33639669
 C           -0.61738878       -0.71446028        4.20111894
 C           -0.56651580        0.70612197        3.88901955
 C           -1.32855342       -1.54574748        3.35307468
 C            0.76425031       -2.69896595        2.70672386
 C           -0.63015128       -2.62428509        2.66116589
 C            1.46135807       -3.11548400        1.57703556
 C            3.11652245       -1.35200345        1.98814510
 C            2.67762651       -2.41076050        1.19916733
 C            3.40829137        1.10883929        1.97665003
 C            3.61647941       -0.20157396        1.37020529
 C            2.95137763        2.00081834        0.92643469
 C            0.94223135        2.37477811        2.17467306
 C            1.76525110        2.70699488        1.10002926
 C           -1.09479116        1.15136518        2.67866533
 C           -0.42108132        2.13347550        1.94594439
 C           -2.23385990       -0.94603203        2.39306438
 C           -2.08883330        0.39790734        2.05444428
 C           -1.33308765       -2.86070365        1.40541326
 C           -2.42824032       -1.91231172        1.33094717
 C            0.74264132       -3.44337225        0.35473585
 C           -0.61520336       -3.14916482        0.25009383
 C            2.67755456       -2.28230064       -0.24876505
 C            1.63100537       -3.15121960       -0.75742081
 C            3.49764516       -0.04264690       -0.07516378
 C            3.19287429        1.34752656       -0.34929888
 C            2.87821473       -1.03112928       -0.82560619
 C            2.36829617        1.66834141       -1.42075417
 C            1.19355306        3.29487234       -0.01767969
 C            1.62417636        2.84296311       -1.32980647
 C           -1.01675769        2.64010223        0.79015743
 C           -0.24744596        3.41892183       -0.07076900
 C           -2.61125043        0.83318365        0.83720734
 C           -2.19774933        2.06256240        0.31936116
 C           -2.81325016       -1.43870854        0.08961914
 C           -3.20747065       -0.10857191       -0.00640609
 C           -1.15853547       -2.81361193       -0.99509961
 C           -2.35418729       -2.08859957       -1.05427599
 C            1.08021865       -2.87456485       -1.99502423
 C           -0.36168201       -2.91945068       -2.13508602
 C            2.18633987       -0.68569705       -1.98963912
 C            1.95724177        0.66246121       -2.30075994
 C            1.52602206       -1.68790119       -2.70054369
 C            1.13710536        1.00002576       -3.37901005
 C            0.53346462        3.08872302       -2.25696786
 C           -0.61431987        3.52563958       -1.47320474
 C            0.35244059        2.22255206       -3.32552086
 C           -2.75518847        2.52646766       -0.87160063
 C           -1.89273860        3.15263685       -1.85739595
 C           -3.84765255        0.30824982       -1.16497628
 C           -3.69425603        1.68418277       -1.58909985
 C           -2.85640995       -1.68543663       -2.29129828
 C           -3.74441968       -0.53399182       -2.34271123
 C           -0.68980787       -2.14508623       -3.31956800
 C            0.48109137       -1.34220149       -3.64815315
 C            0.32810283       -0.01782297       -4.02705761
 C           -1.95756984       -1.59439124       -3.42854605
 C           -0.99282476        1.91612007       -3.78590952
 C           -2.08963256        2.45338641       -3.11690534
 C           -3.31148010        1.67938533       -2.99342547
 C           -3.33039211        0.30432626       -3.45645234
 C           -1.00492886        0.52814548       -4.23262205
 C           -2.12174075       -0.27424768       -4.01588274
