   70
C70 / DATE: 7/ 1/2024 / Origin: Program Fullerene / C70 from database
 C            1.34922066        0.12367296        4.86887757
 C            0.55749652       -1.08730291        4.71761269
 C            1.39917808       -2.09005582        4.10918318
 C            2.58598191       -0.06678729        4.13433750
 C            2.68834128       -1.47465734        3.82747507
 C            2.60804861        0.88052759        3.03086395
 C            0.62136486        1.20442660        4.23063171
 C            1.42496066        1.71757515        3.14195806
 C           -0.67476398       -0.72579322        4.04738467
 C           -0.70071669        0.71590732        3.90890124
 C           -1.13952806       -1.48116390        2.97110142
 C            0.94465420       -2.73081445        2.88754487
 C           -0.28642969       -2.40080423        2.33651523
 C            3.05178745       -1.84296320        2.47810509
 C            2.08654378       -2.81915531        2.00237846
 C            3.00440808        0.45332299        1.76208643
 C            3.46359581       -0.86079566        1.58326006
 C            2.57080686        1.18492332        0.65015527
 C            0.77281824        2.09411911        1.97465609
 C            1.46984563        2.04407175        0.77529684
 C           -1.32726106        1.21715553        2.77932973
 C           -0.62311763        2.08280239        1.93347821
 C           -2.19647358       -0.94331413        2.23346219
 C           -2.34357644        0.44926992        2.22398095
 C           -2.70243640       -1.69946043        1.18133222
 C           -0.50658839       -2.72420119        0.99864677
 C           -1.79811915       -2.60613255        0.50231195
 C            1.88734689       -2.89354092        0.62473236
 C            0.58100088       -2.78484348        0.11256376
 C            3.70309257       -1.30412376        0.29042914
 C            2.95524243       -2.46817786       -0.15860260
 C            3.08069383        0.87795512       -0.61344117
 C            3.69591872       -0.35375239       -0.80138151
 C            2.62466848        1.57870434       -1.72841410
 C            0.87489833        2.58878143       -0.35818114
 C            1.57035125        2.56029068       -1.55951797
 C           -1.26228798        2.53678840        0.77606720
 C           -0.49584048        2.86830415       -0.34763155
 C           -3.14809258        1.06503238        1.27649189
 C           -2.61704587        2.24215444        0.61787882
 C           -3.55700421       -1.08320179        0.18093980
 C           -3.83724060        0.27153395        0.27609207
 C           -1.99671173       -2.43741359       -0.92138318
 C           -3.21022680       -1.66130052       -1.10846212
 C            0.37234946       -2.55877882       -1.26220235
 C           -0.89046347       -2.19175793       -1.72223116
 C            2.79079771       -2.36233718       -1.58796189
 C            3.40191470       -1.11148677       -2.00436151
 C            1.45134739       -2.39178096       -2.12359000
 C            2.35646500        0.85933348       -2.96968658
 C            2.54127129       -0.51269984       -3.00382990
 C            1.37011519       -1.36529894       -3.14702034
 C            0.84368849        2.63263600       -2.81284533
 C            1.13609531        1.40421057       -3.53039804
 C           -1.13382956        3.26531319       -1.52581854
 C           -0.46251263        3.09409302       -2.80508887
 C           -3.23547429        2.33139016       -0.69137755
 C           -3.93888582        1.07491810       -0.93260455
 C           -2.54106562        2.95277256       -1.71927818
 C           -3.35041959       -0.90545927       -2.26378431
 C           -3.85809936        0.45441500       -2.17538440
 C           -1.00883262       -1.35987083       -2.84180410
 C            0.13333603       -0.77930299       -3.40081847
 C            0.08703171        0.54553914       -3.85120167
 C           -2.26412776       -0.89881525       -3.22687432
 C           -1.40907315        2.47193641       -3.71580910
 C           -2.71521484        2.48527233       -3.08299718
 C           -3.33054512        1.19119932       -3.31037231
 C           -1.14229508        1.11619212       -4.16879364
 C           -2.35237808        0.34080378       -3.97291282
