   70
C70 / DATE: 7/ 1/2024 / Origin: Program Fullerene / C70 from database
 C            1.01293221       -0.14196092        4.59524711
 C            2.27502742       -0.45060204        3.96068504
 C            2.19667557       -1.81458012        3.46396506
 C            0.17043233       -1.32349781        4.49401700
 C            0.81714921       -2.23544165        3.57125263
 C           -1.17335429       -0.87872227        4.20030884
 C            0.24236712        0.98098953        4.09863096
 C           -1.14668294        0.57107050        4.08307779
 C            0.71051684        1.72929633        3.02271062
 C            2.72218372        0.38308705        2.86327064
 C            1.97762894        1.48625551        2.47214929
 C            2.81428702       -1.84152473        2.15165709
 C            3.24291653       -0.48683248        1.82918809
 C            2.22998597       -2.60091379        1.14415231
 C            0.16509082       -2.62882194        2.40516061
 C            0.93381476       -3.10023719        1.33581451
 C           -1.83052821       -1.39184127        3.01637300
 C           -1.18329067       -2.30204865        2.18965689
 C           -1.95844797        0.93673382        2.93256853
 C           -2.52465264       -0.28720582        2.39321258
 C           -0.21778640        2.45183885        2.27133080
 C           -1.47689452        1.89278465        2.03862209
 C            0.26669595        3.40086723        1.38331897
 C            2.27724021        2.05782755        1.24182384
 C            1.63747789        3.25076626        0.93559340
 C            3.18639347       -0.06507039        0.49913387
 C            2.72105466        1.22453395        0.20236714
 C            2.68802778       -2.37533856       -0.14893672
 C            3.15908356       -1.04397395       -0.49345469
 C            1.95471407       -2.90418157       -1.28249188
 C            0.27806869       -3.73960524        0.28753411
 C            0.85102137       -3.70703830       -1.04814733
 C           -1.73461471       -2.53714885        0.93216026
 C           -1.14928796       -3.52594449        0.15385884
 C           -2.76140023       -0.34561704        1.02838313
 C           -2.51635392       -1.53459252        0.33210351
 C           -2.00680494        1.91670933        0.74335037
 C           -2.80106728        0.84851824        0.32117271
 C           -0.52375257        3.73029917        0.21406607
 C           -1.52699172        2.84884655       -0.18459591
 C            1.72481001        3.77722032       -0.40865442
 C            0.40205040        4.26076635       -0.76723233
 C            2.44454477        1.56378238       -1.12911925
 C            2.15977913        2.88405223       -1.45862568
 C            2.64602149       -0.72036633       -1.81277677
 C            1.88087530       -1.85675718       -2.29309811
 C            2.17301968        0.55729198       -2.05607215
 C            0.69043950       -1.63367733       -2.98298738
 C           -0.24362868       -3.68406450       -1.99899586
 C           -1.48794695       -3.63057055       -1.24603403
 C           -0.29292662       -2.62276047       -2.98896938
 C           -2.84713243       -1.59636752       -1.03079124
 C           -2.31131860       -2.59932933       -1.83832943
 C           -1.68623284       -2.23628109       -3.10146244
 C           -3.29191225        0.82185518       -0.97078662
 C           -3.36431778       -0.45934690       -1.65409231
 C           -1.87564981        2.74294998       -1.53936741
 C           -2.84850817        1.82417163       -1.92057858
 C            0.18909482        3.94323163       -2.15945717
 C            1.32658494        3.15378764       -2.61452864
 C           -1.00420390        3.21019577       -2.52718997
 C            1.17684160        0.73967979       -3.01786446
 C            0.36206373       -0.33623255       -3.38806430
 C            0.79751862        2.03150366       -3.37056831
 C           -0.60791306        2.31006142       -3.59490573
 C           -1.98922766       -1.00692191       -3.66085315
 C           -3.05239345       -0.22851592       -3.05373135
 C           -2.72268059        1.17631641       -3.21620906
 C           -0.89761577       -0.08943355       -3.94040748
 C           -1.44891056        1.25607586       -3.90853815
