   70
C70 / DATE: 7/ 1/2024 / Origin: Program Fullerene / C70 from database
 C            1.56417927       -0.27866780        4.98066965
 C            0.72691656       -1.46508478        4.96168444
 C            1.23973374       -2.35992404        3.93847057
 C            2.62404283       -0.47433874        4.01189791
 C            2.42161462       -1.75652513        3.36151556
 C            2.67178769        0.70516164        3.16722158
 C            0.76453977        0.84472424        4.52069458
 C            1.46359255        1.47387621        3.41498907
 C           -0.60239647       -1.05922252        4.54863021
 C           -0.58259496        0.36979712        4.29030865
 C            0.14591932       -2.69400614        3.05008997
 C           -1.02106028       -1.93447681        3.46426902
 C            0.39703389       -2.79583920        1.68960005
 C            2.58727392       -1.80110225        1.98237608
 C            1.67841930       -2.51643668        1.19252427
 C            3.05852998        0.53740588        1.84770902
 C            3.29177139       -0.76102015        1.38988506
 C            2.63949803        1.49099186        0.92653855
 C            0.72366953        1.91642260        2.31695836
 C            1.37094968        2.05733156        1.08551649
 C           -1.25366818        0.81352141        3.16129875
 C           -0.66789854        1.78338480        2.33928214
 C           -1.83394976       -1.39202482        2.47081720
 C           -2.18093887       -0.04861994        2.59095645
 C           -0.68906610       -2.72437716        0.82600962
 C           -1.79752769       -1.95289575        1.18872704
 C           -0.48628110       -3.06487754       -0.49813314
 C            1.89761350       -2.57551541       -0.19220453
 C            0.86008268       -2.97781743       -1.03248703
 C            3.70261199       -0.92952815        0.07795456
 C            2.98141888       -1.88918591       -0.74274860
 C            3.23842437        1.47581052       -0.32386100
 C            3.92149364        0.25983854       -0.72240944
 C            2.50547188        1.96517122       -1.47320144
 C            0.62441762        2.43754817       -0.03492489
 C            1.20205576        2.42293266       -1.31168942
 C           -1.41005288        2.24346029        1.25007763
 C           -0.74040848        2.70114610        0.11186857
 C           -3.05227660        0.48808904        1.66490848
 C           -2.72454363        1.79263393        1.12811491
 C           -2.64190158       -1.42383546        0.20238978
 C           -3.44009988       -0.33127461        0.53682794
 C           -1.40894445       -2.59216912       -1.50841872
 C           -2.46984202       -1.77315467       -1.14369861
 C            0.76836901       -2.43422117       -2.38057471
 C           -0.64137467       -2.26691621       -2.69995558
 C            2.87890246       -1.33727543       -2.08780819
 C            3.53811707       -0.04389975       -2.08595710
 C            2.81417988        1.09846061       -2.60099876
 C            1.69492384       -1.48896715       -2.80503272
 C            1.82132078        0.86758968       -3.53642853
 C            1.29654262       -0.48568551       -3.69006064
 C            0.39154739        2.53456946       -2.44203661
 C            0.68462368        1.76534402       -3.56786816
 C           -1.47928266        3.13245213       -0.99007405
 C           -0.88185061        3.07012433       -2.31055819
 C           -3.41611244        1.91268166       -0.14061542
 C           -3.89475039        0.57876186       -0.49665026
 C           -2.87309237        2.73583058       -1.11469050
 C           -3.09782479       -1.03501273       -2.14860922
 C           -3.85738237        0.15807804       -1.81599185
 C           -1.05782990       -1.20855487       -3.50133753
 C           -0.10416033       -0.36909873       -4.07799092
 C           -0.38428831        1.05259657       -4.24240470
 C           -2.37643924       -0.77458512       -3.38601907
 C           -1.91518700        2.67331099       -3.25555655
 C           -3.14138217        2.44855752       -2.51198367
 C           -3.64617271        1.13612861       -2.86908156
 C           -1.68327752        1.51644617       -4.10485395
 C           -2.73773019        0.55595684       -3.84386688
