   70
C70 / DATE: 7/ 1/2024 / Origin: Program Fullerene / C70 from database
 C            1.35847537       -0.14275689        5.17337091
 C            0.56540642       -1.28290760        4.74918387
 C            1.42419880       -2.12702109        3.95107097
 C            2.56152246       -0.12146100        4.35704743
 C            2.65062687       -1.38936159        3.67523998
 C            2.53196205        1.08351571        3.55704009
 C            0.59583547        1.05565695        4.87178554
 C            1.38182633        1.87479190        3.96930771
 C           -0.65759233       -0.77615176        4.15007014
 C           -0.72400636        0.64699396        4.44123193
 C           -1.05574582       -1.23179562        2.88932768
 C            0.92509418       -2.60335540        2.67960866
 C           -0.36620289       -2.28477094        2.26898481
 C            2.84066143       -1.39289588        2.23457171
 C            1.98859100       -2.43910095        1.71292974
 C            2.85108194        1.03804992        2.20115887
 C            2.91579664       -0.19427017        1.52546570
 C            2.58148397        2.18870379        1.47403095
 C            0.72365267        2.63409529        3.00251339
 C            1.44852301        3.00862016        1.87435204
 C           -1.39049808        1.46772503        3.54783799
 C           -0.67019996        2.57462730        2.92649023
 C           -1.95692164       -0.46144822        2.14042323
 C           -2.19724488        0.85546058        2.50859105
 C           -2.32943162       -0.88439739        0.86338278
 C           -0.69351699       -2.59836462        0.95462589
 C           -1.90557957       -2.14341478        0.45685141
 C            1.61681984       -2.38219158        0.38014221
 C            0.34705926       -2.83200748        0.04968366
 C            2.70256803       -0.24122192        0.14026817
 C            2.18287139       -1.41293236       -0.43850760
 C            2.61594655        2.14942797        0.02968326
 C            2.79110071        0.93422000       -0.61142386
 C            0.76153011        3.43687506        0.66523669
 C            1.59689541        3.05965222       -0.46615808
 C           -1.34520276        2.86514395        1.66936228
 C           -2.36675490        1.84527182        1.46924505
 C           -0.62077827        3.31760861        0.56933277
 C           -2.71427260        0.05860131       -0.10648922
 C           -2.64052322        1.42605304        0.17490488
 C           -2.95161638       -0.36518108       -1.42199949
 C           -2.31169685       -2.62523521       -0.77633770
 C           -3.04042665       -1.73730674       -1.65568165
 C            0.03099562       -2.96954291       -1.29721867
 C           -1.29863042       -3.25234401       -1.59665945
 C            1.83624037       -1.43033229       -1.79053327
 C            0.83041644       -2.29990451       -2.23612627
 C            2.54159251        0.89505425       -1.97605322
 C            2.22816544       -0.37122561       -2.59814656
 C            1.01064898        2.79395808       -1.69963287
 C            1.64879620        1.89394459       -2.54952729
 C           -1.19781699        3.19632183       -0.69084572
 C           -2.33197981        2.30175191       -0.85290175
 C           -0.34836031        3.04007483       -1.86310543
 C           -2.75119235        0.52761634       -2.49070694
 C           -2.32578601        1.81934854       -2.21528198
 C           -1.11007115        2.29702512       -2.85558575
 C           -2.45976703        0.04749273       -3.76619493
 C           -2.88409838       -2.27059866       -2.99839548
 C           -1.76416224       -3.20279843       -2.96537689
 C           -2.65533671       -1.34999657       -4.08491889
 C            0.46278329       -2.27814364       -3.58516689
 C           -0.82649226       -2.81074729       -3.99209225
 C           -1.48288351       -1.80834232       -4.81253810
 C            1.47935358       -0.07521475       -3.80537248
 C            0.91481467        1.25993065       -3.63567034
 C           -0.46253940        1.45918318       -3.75954886
 C           -1.23081475        0.49229366       -4.40708141
 C            0.69693517       -1.07182304       -4.36265564
 C           -0.57212908       -0.68452596       -4.94041869
