   70
C70 / DATE: 7/ 1/2024 / Origin: Program Fullerene / C70 from database
 C            1.00167660        0.01905833        4.80554408
 C            2.31102889       -0.31254119        4.29489603
 C            2.32327226       -1.74748023        4.06223796
 C            0.20347965       -1.20088971        4.78615677
 C            0.93671476       -2.16576872        3.99437967
 C           -1.13247844       -0.83614214        4.37235338
 C            0.22949199        1.03290754        4.11983544
 C           -1.14692828        0.60487921        4.20705885
 C            0.67401422        1.55570060        2.90285340
 C            2.75249563        0.31448346        3.06440544
 C            1.86126945        1.09241735        2.32244989
 C            3.16640799       -1.98157495        2.91069380
 C            3.54238536       -0.68125260        2.37343721
 C            2.62802364       -2.75123937        1.80662415
 C            0.42263883       -2.60115964        2.76899369
 C            1.29927848       -3.17294037        1.83603468
 C           -1.66166211       -1.40112429        3.14714079
 C           -0.87469091       -2.23327253        2.36573781
 C           -2.00018505        0.89581706        3.08043456
 C           -2.41632893       -0.35689771        2.48187813
 C           -0.25247009        2.20179433        2.08553763
 C           -1.61365518        1.88848611        2.20487157
 C            0.18883316        2.74439616        0.87674190
 C            2.04046618        1.21043964        0.93587970
 C            1.23383925        2.09956788        0.20952457
 C            3.43208101       -0.76349246        0.93216213
 C            3.12548208       -2.13823043        0.58860569
 C            2.76394447        0.23419693        0.24332009
 C            2.43443552       -2.38959022       -0.59367648
 C            0.77939901       -3.68696697        0.65367524
 C            1.51067100       -3.43206333       -0.57568443
 C           -1.27116526       -2.45359007        1.05222672
 C           -0.61701732       -3.45020062        0.34996111
 C           -2.54813884       -0.38956128        1.08911388
 C           -2.01722467       -1.47101600        0.37470425
 C           -2.38041539        2.01195510        1.06542959
 C           -2.75147948        0.82386814        0.41938295
 C           -0.73182979        3.48567854        0.14163340
 C           -2.12892293        3.13349809        0.30250230
 C           -0.51090802        3.70483319       -1.27261427
 C            1.24645977        2.05549589       -1.19774459
 C            0.44114623        2.93724036       -1.93667103
 C            2.43324603       -0.01781304       -1.07436982
 C            2.25132894       -1.34037533       -1.50538773
 C            1.95017056        1.02778510       -1.83918346
 C            1.56703800       -1.58433299       -2.70412825
 C            0.56382679       -3.56052068       -1.66273647
 C           -0.77173709       -3.53298390       -1.08366557
 C            0.59185593       -2.57749720       -2.72205113
 C           -2.06422065       -1.44940913       -1.02875130
 C           -1.51902210       -2.49614517       -1.76269687
 C           -0.78391368       -2.18133583       -2.96947414
 C           -2.88869485        0.81691104       -0.97198315
 C           -2.36822430       -0.26004078       -1.69850423
 C           -2.77388464        3.24510815       -0.98123905
 C           -1.82653797        3.88575847       -1.86902261
 C           -3.19110256        2.01575943       -1.61589459
 C           -2.07304021        3.35112636       -3.19007452
 C           -2.90980247        2.16459074       -3.02787519
 C            0.36210088        2.82692698       -3.32785941
 C           -0.92830816        2.96549896       -3.98505893
 C            1.78808392        0.79656129       -3.19381450
 C            1.40408484       -0.53748244       -3.60665948
 C            1.03290705        1.73378563       -3.99418871
 C           -0.99289183       -0.95188631       -3.57288063
 C           -1.96427069       -0.09977290       -3.03744425
 C           -2.26280809        1.07554387       -3.72545544
 C           -1.23879803        1.67311994       -4.56401636
 C            0.10078627       -0.39021749       -4.22609280
 C            0.01839340        0.97161814       -4.71151907
