   70
C70 / DATE: 7/ 1/2024 / Origin: Program Fullerene / C70 from database
 C            1.09879480       -0.20476843        4.88676694
 C            2.34113678       -0.42279735        4.16828209
 C            2.22557976       -1.68682519        3.45878455
 C            0.25449769       -1.36795025        4.66516868
 C            0.86172196       -2.15462527        3.60959096
 C           -1.10036144       -0.90078292        4.48439025
 C            0.30524792        0.97767078        4.59337358
 C           -1.07606832        0.55518733        4.46727036
 C            0.79463180        1.93848363        3.71620513
 C            2.79101545        0.57504748        3.21533034
 C            2.11183719        1.78099678        3.11180270
 C            2.73969032       -1.49292125        2.11437381
 C            3.18508590       -0.11639752        1.99814821
 C            2.05057676       -2.04918866        1.04397638
 C            0.13885481       -2.45045316        2.45534673
 C            0.84699814       -2.71577798        1.28293414
 C           -1.83096493       -1.33074466        3.30910498
 C           -1.23778720       -2.18250240        2.38014482
 C           -1.84950104        0.99124575        3.31452105
 C           -2.54231016       -0.17684790        2.80599237
 C           -0.08920746        2.51003643        2.70730543
 C           -1.29403939        1.88883091        2.40238246
 C            2.07927337        2.45162480        1.82751116
 C            0.74510583        2.99736420        1.63170583
 C            3.04282242        0.52239206        0.76761503
 C            2.72014609        1.88300347        0.73200448
 C            2.30413006       -1.55270648       -0.23287466
 C            2.82656262       -0.26009996       -0.37160436
 C            1.75364375       -2.21041233       -1.33356574
 C            0.16228732       -3.26602289        0.21012396
 C            0.66218357       -3.04999824       -1.13621511
 C           -1.88727085       -2.33844946        1.15155813
 C           -1.27875370       -3.12273772        0.17574727
 C           -2.90853770       -0.18465259        1.47292702
 C           -2.84686702       -1.39021357        0.77666612
 C           -1.75256615        1.87505201        1.08066427
 C           -2.78900923        1.00024761        0.75525536
 C            0.24635601        3.04560317        0.33571614
 C           -0.99793115        2.46818222        0.05389642
 C            2.46636907        2.47007243       -0.50038311
 C            1.18664813        3.14024093       -0.68178165
 C            2.87450408        0.34078013       -1.62856513
 C            2.73164786        1.72127182       -1.71212424
 C            1.97091645       -1.70768661       -2.61037769
 C            2.64492879       -0.43316093       -2.76049687
 C            0.87446127       -1.73796558       -3.56550135
 C           -0.48223000       -2.93857317       -2.02760863
 C           -1.68413761       -3.00583784       -1.21606837
 C           -0.40342457       -2.06315377       -3.10930537
 C           -3.40979795       -1.43300653       -0.49559492
 C           -2.76446078       -2.20864975       -1.54171559
 C           -3.36178709        1.05886857       -0.50525617
 C           -3.85141495       -0.18032156       -1.08484691
 C           -1.42370786        2.34634249       -1.27909283
 C           -2.67705419        1.79684660       -1.54865917
 C            0.77883130        2.94778254       -2.05638577
 C            1.88329110        2.29435033       -2.74338868
 C           -0.52550012        2.55877828       -2.33291858
 C            2.13003604        0.19812477       -3.96720655
 C            1.07064473       -0.64642818       -4.49643246
 C            1.62516915        1.55747595       -3.88966099
 C           -0.81195483        2.05748324       -3.60175694
 C           -0.05573034        0.19639028       -4.81698182
 C            0.27678331        1.55963822       -4.42913070
 C           -1.50914566       -1.26335376       -3.44888731
 C           -2.70364100       -1.38819067       -2.73883699
 C           -3.48970785       -0.19162480       -2.48856808
 C           -2.90544562        1.09824663       -2.80550157
 C           -1.34350448       -0.11670074       -4.23105850
 C           -1.91859102        1.13886824       -3.77423436
