   70
C70 / DATE: 7/ 1/2024 / Origin: Program Fullerene / C70 from database
 C            1.27228424        0.02654804        4.32654424
 C            2.58453653       -0.25786170        3.80042346
 C            2.60302124       -1.64660759        3.37180472
 C            0.44656626       -1.15801664        4.14633660
 C            1.25479055       -2.17524209        3.50176667
 C           -0.78890149       -0.74927712        3.50381297
 C            0.54625544        1.15165585        3.77852102
 C           -0.79219780        0.69720489        3.43616869
 C            1.17770927        2.05550633        2.92377671
 C            3.07352248        0.55121494        2.70298292
 C            2.42094059        1.73208248        2.34721281
 C            3.25314426       -1.70999802        2.07246914
 C            3.50347952       -0.34521025        1.64043414
 C            2.78533576       -2.62955923        1.14771541
 C            0.71428670       -2.88435039        2.43358268
 C            1.58684350       -3.38312421        1.46928920
 C           -1.23814786       -1.46751456        2.40776796
 C           -0.62517000       -2.67968763        2.08862741
 C           -2.04238913       -0.83283446        1.46147671
 C           -1.45244964        1.33399058        2.39022770
 C           -2.08430760        0.56929499        1.40193010
 C            0.34879459        2.98648673        2.30130564
 C           -1.04389954        2.62596755        2.08162630
 C            0.80488679        3.72182204        1.13660482
 C            2.77936548        2.28593246        1.11920662
 C            1.98985106        3.34762669        0.52668917
 C            3.26616275        0.03099171        0.31839221
 C            3.19668395        1.39048255        0.05064371
 C            2.65913117       -2.22648192       -0.24159389
 C            2.65943362       -0.87248684       -0.56116115
 C            1.04950339       -3.87546831        0.21702128
 C            1.67614374       -3.10313375       -0.85041624
 C           -1.18895881       -3.46505807        1.08920629
 C           -0.30972456       -4.13443647        0.14143307
 C           -2.67909210       -1.60504923        0.48739627
 C           -2.32547087       -2.94568978        0.34674514
 C           -3.37561808       -0.98144456       -0.54409536
 C           -2.64573961        1.20673432        0.28885033
 C           -3.39267923        0.46636367       -0.62079062
 C           -1.47472646        3.23785425        0.84253485
 C           -0.36067633        4.01674348        0.31938558
 C           -2.27776754        2.51672262       -0.03356353
 C           -0.21750110        4.14354429       -1.05624368
 C            2.03394581        3.16867774       -0.91736199
 C            2.57638437        1.84631681       -1.17421992
 C            0.97796477        3.61383964       -1.69837835
 C            1.84106107       -0.40951436       -1.60294115
 C            1.84720206        0.94951348       -1.94661043
 C            0.89136941       -2.62526230       -1.89351956
 C            1.07862795       -1.31849733       -2.35101627
 C           -0.94114704       -4.07416496       -1.16166381
 C           -2.27167699       -3.52329370       -0.98364577
 C           -0.29174361       -3.29912460       -2.20020703
 C           -3.26589857       -1.49856848       -1.90284575
 C           -2.54842499       -2.66663684       -2.12195311
 C           -1.34045944       -2.61663097       -2.93687993
 C           -3.37559235        0.83473288       -2.02704933
 C           -3.06749555       -0.36494730       -2.78834766
 C           -2.39922817        2.96727802       -1.34751141
 C           -1.35152743        3.80604819       -1.89930231
 C           -2.80181631        2.04365690       -2.39273124
 C            0.54298983        2.78915466       -2.81207906
 C            0.92998596        1.44995510       -2.87490159
 C           -0.84051232        3.13283094       -3.08010558
 C           -1.76504909        2.06546772       -3.41672282
 C            0.28730812       -0.85639548       -3.39823057
 C           -1.02179078       -1.44933165       -3.61439349
 C           -1.98728250       -0.36373095       -3.66466127
 C            0.16623107        0.56858722       -3.63061909
 C           -1.24068040        0.86380197       -3.87414956
