   70
C70 / DATE: 7/ 1/2024 / Origin: Program Fullerene / C70 from database
 C            1.68859855        0.00615808        4.67063962
 C            0.83691249       -1.16266825        4.54111862
 C            1.31461554       -1.94406885        3.41220883
 C            2.65192433       -0.02985887        3.58648251
 C            2.50909883       -1.29360104        2.89970430
 C            2.49778007        1.17522626        2.80279227
 C            0.85480332        1.17848908        4.47892548
 C            1.32516852        1.87939294        3.29501995
 C           -0.53973613       -0.70968376        4.53956056
 C           -0.52885358        0.74919840        4.52337793
 C           -1.45459564       -1.39553849        3.75164366
 C            0.39484390       -2.46790036        2.50045640
 C           -0.97238237       -2.36065110        2.76972618
 C            0.81820533       -2.73084914        1.19111861
 C            2.71599657       -1.32228596        1.52994355
 C            2.10999453       -2.34252312        0.81899351
 C            2.67106475        1.08982877        1.43058190
 C            3.01727724       -0.13633505        0.85046590
 C            2.02806985        2.03059881        0.64418898
 C            0.39158818        2.36019389        2.37382293
 C            0.75981016        2.46915496        1.02808986
 C           -1.44609778        1.42919136        3.73390557
 C           -0.95878185        2.35339260        2.71693637
 C           -2.56859360       -0.67840335        3.15444964
 C           -2.57369794        0.71215463        3.16437328
 C           -1.91935266       -2.37651402        1.66747251
 C           -2.95138237       -1.39312105        1.94700948
 C           -0.13795970       -2.99087148        0.20113696
 C           -1.43605994       -2.52358507        0.37324590
 C            0.27451176       -3.34106407       -1.07807125
 C            2.54560061       -2.55334666       -0.47759234
 C            1.68519007       -3.27067857       -1.39105545
 C            3.20426916       -0.19059268       -0.53920139
 C            3.12062857       -1.42376841       -1.18858967
 C            2.41743551        2.12932655       -0.67801273
 C            3.06352371        0.97881707       -1.28715889
 C            1.50409035        2.69835395       -1.64597382
 C           -0.20873985        2.73449154        0.04964772
 C            0.18257306        2.93680258       -1.27743029
 C           -1.96243020        2.42138846        1.67237140
 C           -2.99055971        1.43766322        1.97666654
 C           -1.56866377        2.59699070        0.35127094
 C           -3.52429116       -0.70253366        0.88977329
 C           -3.58782528        0.75119883        0.92831611
 C           -2.10243886       -1.92460300       -0.70220822
 C           -3.18774052       -1.09168370       -0.46971570
 C           -0.45735642       -2.80056202       -2.21047087
 C           -1.50847000       -1.91802081       -1.96440041
 C            1.82729966       -2.66978807       -2.70359183
 C            2.66356601       -1.48926702       -2.57024941
 C            0.50053686       -2.51714567       -3.26787533
 C            2.62399230        0.90856326       -2.67369728
 C            1.80564641        2.08650593       -2.93133708
 C            2.28407373       -0.32397233       -3.22933102
 C            0.82820669        2.04729216       -3.91404664
 C           -0.79373698        3.01710012       -2.26534756
 C           -0.47177019        2.62675148       -3.63095423
 C           -2.46862923        2.25714235       -0.65962272
 C           -3.37885012        1.22971646       -0.42635254
 C           -3.35787348        0.07453994       -1.30931006
 C           -2.11875820        2.50650781       -1.97827444
 C           -1.77200858       -0.87015109       -2.86029580
 C           -1.48749333        1.68144646       -4.07072154
 C           -2.63374647        0.17549929       -2.49200322
 C           -2.38441592        1.46636974       -2.95539181
 C            0.26891732       -1.43831776       -4.10276242
 C            1.28398604       -0.39819227       -4.20049629
 C            0.61176349        0.81155705       -4.64261055
 C           -1.01059863       -0.76218414       -4.02681353
 C           -0.81767298        0.53732616       -4.64447095
