   70
C70 / DATE: 7/ 1/2024 / Origin: Program Fullerene / C70 from database
 C            1.68265504        0.01454152        4.69326715
 C            0.84001860       -1.15864412        4.54444413
 C            1.32305334       -1.91737812        3.40134845
 C            2.67316484       -0.02331579        3.63662468
 C            2.56700959       -1.30569304        2.96705695
 C            2.52275487        1.16891828        2.82140653
 C            0.84988402        1.17982479        4.46751184
 C            1.31664628        1.84522432        3.25957546
 C           -0.53892081       -0.71259495        4.54625175
 C           -0.53291685        0.74702764        4.52649718
 C           -1.44761650       -1.40039659        3.75259257
 C            0.41107093       -2.35492454        2.43779310
 C           -0.95001422       -2.31348635        2.72922395
 C            0.83589987       -2.49564059        1.11056140
 C            2.86729907       -1.33940042        1.61607528
 C            2.17689020       -2.24312944        0.81637298
 C            2.75740566        1.03565882        1.46044037
 C            3.31596244       -0.16061079        1.02444690
 C            1.98076135        1.76421777        0.55808261
 C            0.38040774        2.24623699        2.30995274
 C            0.71966619        2.22013222        0.95255838
 C           -1.45282424        1.41770807        3.73335564
 C           -0.96146172        2.29607630        2.67969419
 C           -2.58417690       -0.69297905        3.19013534
 C           -2.59397888        0.69759137        3.19575689
 C           -1.91315079       -2.32877744        1.64629704
 C           -2.98590722       -1.40952951        1.99103805
 C           -0.10276796       -2.56076072        0.06743939
 C           -1.46656617       -2.38525776        0.33136029
 C            0.33110657       -2.71212287       -1.25492678
 C            2.64170207       -2.43355380       -0.47696607
 C            1.68983973       -2.67845104       -1.54324905
 C            3.76113481       -0.22465882       -0.28437666
 C            3.62869238       -1.49357071       -0.97616396
 C            2.28435054        1.66579529       -0.80282072
 C            3.31754276        0.81023860       -1.20000144
 C            1.38893260        2.15231556       -1.75974960
 C           -0.25072496        2.49048819       -0.01606458
 C            0.11828513        2.58923968       -1.35855979
 C           -1.98271603        2.35870368        1.65481695
 C           -3.03169367        1.41590744        2.01118195
 C           -1.60981812        2.47198646        0.32251960
 C           -3.63205971       -0.72777158        0.96970212
 C           -3.67819731        0.72782264        0.99344200
 C           -2.33303144       -1.99299876       -0.69145350
 C           -3.38656337       -1.13269040       -0.40387096
 C           -0.56301319       -2.50752471       -2.29991015
 C           -1.92119076       -2.09431599       -2.01066233
 C           -0.11833181       -1.79337427       -3.48831980
 C            2.14683839       -1.96924975       -2.73265157
 C            3.33012735       -1.21340250       -2.36686778
 C            3.30620145        0.22694937       -2.53194876
 C            1.20915907       -1.37396179       -3.57320969
 C            1.67078784        1.92486100       -3.11029343
 C            2.44304416        0.75557686       -3.47257242
 C            1.51710927       -0.13955542       -4.15156473
 C            0.62366944        2.02452963       -4.10608227
 C            0.45848837        0.69856041       -4.68831892
 C           -0.88793667        2.81302160       -2.29890279
 C           -0.67560766        2.49314849       -3.69576466
 C           -2.55727733        2.16564937       -0.65327716
 C           -3.51015833        1.19128726       -0.37415645
 C           -3.58872797        0.03275196       -1.24633858
 C           -2.23269909        2.38262337       -1.98239732
 C           -2.28422888       -1.04050740       -2.94889801
 C           -1.20524641       -0.92444783       -3.92157775
 C           -0.92358348        0.30380496       -4.50229174
 C           -1.65140769        1.47610020       -4.05984089
 C           -2.95256477        0.09545449       -2.48348034
 C           -2.58048105        1.35470224       -2.95129323
