   70
C70 / DATE: 7/ 1/2024 / Origin: Program Fullerene / C70 from database
 C            1.39288937        0.13080142        4.88015901
 C            0.61045365       -1.08197396        4.72595524
 C            1.43883045       -2.06332229        4.06508293
 C            2.62020976       -0.03754146        4.11921702
 C            2.69684252       -1.42055696        3.71435110
 C            2.64861268        0.98264672        3.08725609
 C            0.64199663        1.21779576        4.27525000
 C            1.47555543        1.81975949        3.26645484
 C           -0.64388781       -0.71944490        4.10143579
 C           -0.64672670        0.71019585        3.86075008
 C           -1.17863839       -1.52440839        3.10769127
 C            0.92414752       -2.70682697        2.86864558
 C           -0.37901759       -2.47465810        2.45419494
 C            2.95377002       -1.70546300        2.31983343
 C            1.96733360       -2.67352657        1.86695963
 C            3.02753054        0.65502529        1.77935388
 C            3.31510125       -0.68091466        1.44804516
 C            2.68687330        1.56032169        0.76168999
 C            0.87737220        2.31079206        2.12151806
 C            1.70460488        2.52162117        1.03603435
 C           -1.19530071        1.16162156        2.65866433
 C           -0.48491867        2.08025635        1.87477549
 C           -2.23518554       -0.99101295        2.38888559
 C           -2.16386094        0.36691394        2.04445265
 C           -2.89130121       -1.86344523        1.53995155
 C           -0.71089470       -2.82646710        1.14529690
 C           -2.05575559       -2.78968435        0.80167897
 C            1.61986077       -2.66750641        0.51543265
 C            0.26383794       -2.69600785        0.14527672
 C            3.39574714       -1.03555267        0.10896135
 C            2.54998309       -2.12334157       -0.36039640
 C            3.05681084        1.28904850       -0.56209739
 C            3.39402129       -0.00800139       -0.91002373
 C            2.69024332        2.16256068       -1.58175653
 C            1.20546826        3.31759325        0.02549307
 C            1.85747378        3.30020260       -1.26050390
 C           -1.00831692        2.47075148        0.63195342
 C           -0.23091742        3.29702824       -0.18341666
 C           -2.74993257        0.81021905        0.85674505
 C           -2.07347833        1.75297141        0.06942028
 C           -3.88076745       -1.33226538        0.63508174
 C           -3.81015396        0.07887339        0.32757535
 C           -2.43336446       -2.68865381       -0.59119852
 C           -3.73914494       -2.05397949       -0.61484077
 C           -0.11551010       -2.35872803       -1.17070875
 C           -1.47287242       -2.31225397       -1.52487482
 C            2.16673612       -1.83117652       -1.72026417
 C            2.81852646       -0.59052204       -2.11067352
 C            0.86155285       -2.05652370       -2.12793803
 C            2.22761696        1.61881365       -2.85353379
 C            2.18469447        0.23205308       -3.03706706
 C            0.82814983        3.41269396       -2.27484141
 C           -0.46363612        3.32253337       -1.61403295
 C            1.13501914        2.46483601       -3.32775529
 C           -2.35354776        1.87480779       -1.30509449
 C           -1.43070673        2.48843924       -2.15234768
 C           -4.14147227        0.20968524       -1.07183765
 C           -4.03032662       -1.11569538       -1.67240321
 C           -3.36334804        1.11582054       -1.88802007
 C           -1.87550564       -1.68860094       -2.71471034
 C           -3.08806693       -0.99780163       -2.76256357
 C           -3.07149532        0.40730480       -3.11938375
 C            0.48366230       -1.51086323       -3.34769041
 C            1.18949938       -0.33195531       -3.83398021
 C           -0.92054481       -1.36164033       -3.66751319
 C            0.07672464        1.88827183       -4.01173659
 C           -1.26455833        2.01241383       -3.45683908
 C           -2.03076579        0.86297157       -3.91081193
 C            0.22259824        0.52845933       -4.48562828
 C           -1.07642985       -0.11578756       -4.40303935
