   70
C70 / DATE: 7/ 1/2024 / Origin: Program Fullerene / C70 from database
 C            1.51977968        0.11568909        4.91695417
 C            0.72458929       -1.09699295        4.95629021
 C            1.49781003       -2.14664043        4.32078626
 C            2.65046990       -0.12624662        4.03454329
 C            2.66326586       -1.53061711        3.70208997
 C            2.57478441        0.83227313        2.95226002
 C            0.70742985        1.15737627        4.31301037
 C            1.46498483        1.72685257        3.22093918
 C           -0.59501179       -0.78558508        4.43153848
 C           -0.59439773        0.60515244        4.00351196
 C           -1.24896817       -1.72453710        3.64594668
 C            0.85309689       -2.97296694        3.31655251
 C           -0.52203699       -2.88571099        3.14282883
 C            2.66991570       -1.90992977        2.30128679
 C            1.70335995       -2.97807350        2.13804260
 C            2.76709444        0.42380704        1.63258640
 C            2.76064197       -0.93875002        1.30076368
 C            2.42787399        1.33573290        0.63994512
 C            0.77205617        2.20829518        2.11986019
 C            1.47592246        2.31736086        0.93153043
 C           -1.17244135        0.94824863        2.78174516
 C           -0.60148793        1.98124537        2.02709691
 C           -2.11874078       -1.26104846        2.57929235
 C           -2.04845218        0.05892005        2.15505962
 C           -1.07468758       -3.21234237        1.84179257
 C           -2.18084506       -2.30677736        1.57964561
 C            1.12632343       -3.14257163        0.88529716
 C           -0.21919043       -3.52093899        0.79121736
 C            2.42469458       -1.31434959       -0.00681688
 C            1.73606604       -2.51602627       -0.20288093
 C            2.63508557        0.98300330       -0.68523453
 C            2.48540473       -0.36411137       -1.03708930
 C            2.47520137        1.98256643       -1.63551285
 C            0.86755483        2.99608054       -0.11726767
 C            1.54420626        3.05259393       -1.33130448
 C           -1.24965149        2.39435027        0.86042529
 C           -0.52234195        3.12285447       -0.09019273
 C           -2.52688720        0.37906932        0.89026272
 C           -2.38297119        1.68917892        0.45315664
 C           -2.45115696       -1.96320370        0.25780959
 C           -2.73106199       -0.63045141       -0.05955471
 C           -0.79457536       -3.61708233       -0.47050153
 C           -1.97495048       -2.80830509       -0.74392279
 C            1.34821546       -2.88667395       -1.47986620
 C            0.06641599       -3.54170006       -1.63261447
 C            2.13574911       -0.72964970       -2.34958307
 C            1.49148425       -1.94237484       -2.56747920
 C            2.30236684        1.61958933       -3.02016228
 C            1.95889989        0.25142851       -3.32222706
 C            0.83174368        3.39603267       -2.54960131
 C            1.27888656        2.48212729       -3.58964449
 C           -1.19041572        3.65447343       -1.19054433
 C           -0.51424606        3.72597538       -2.47712684
 C           -3.03338077        2.06176085       -0.71571030
 C           -2.55356404        3.22569494       -1.43272421
 C           -2.88636354       -0.26977598       -1.39913870
 C           -3.31143845        1.02147175       -1.69017952
 C           -1.87736104       -2.31828727       -2.10976098
 C           -0.66419474       -2.85755134       -2.68407991
 C            0.24806659       -1.93746125       -3.32609837
 C           -2.20086441       -0.99455616       -2.37556307
 C            0.71129546        0.25924132       -4.07115991
 C            0.30328043        1.63976800       -4.26444298
 C           -0.23661761       -0.71430947       -3.77436646
 C           -1.52794931       -0.31692839       -3.40277565
 C           -1.41684671        3.18697424       -3.48133637
 C           -2.70533874        2.96640143       -2.85319941
 C           -3.03685754        1.56101699       -3.00788978
 C           -1.04289936        1.96667399       -4.17694232
 C           -1.99582184        0.93324668       -3.79957250
