   70
C70 / DATE: 7/ 1/2024 / Origin: Program Fullerene / C70 from database
 C            1.28127271       -0.06448345        4.45919019
 C            2.60952944       -0.29692881        3.92549018
 C            2.62355428       -1.62387855        3.33473271
 C            0.47070012       -1.23288704        4.15841478
 C            1.26662051       -2.14547384        3.36685902
 C           -0.78282086       -0.77189852        3.61101403
 C            0.54483682        1.11114171        4.02623288
 C           -0.76438353        0.67787788        3.56594503
 C            1.20425761        2.11090121        3.32706760
 C            3.14428591        0.63152780        2.94590060
 C            2.53219235        1.86574323        2.77141966
 C            3.30098290       -1.53775641        2.05338814
 C            3.52929464       -0.12931496        1.76797912
 C            2.86426110       -2.36155032        1.03018889
 C            0.72932546       -2.67845342        2.19631512
 C            1.61034071       -3.07925593        1.20038268
 C           -1.33389003       -1.43625424        2.53161707
 C           -0.60674252       -2.42703210        1.85649713
 C           -2.35858791       -0.79663330        1.85813057
 C           -1.36984349        1.31721954        2.47929903
 C           -2.28657870        0.59546796        1.69771505
 C            0.46019135        2.89239641        2.35727034
 C           -0.82793756        2.51291683        1.99274809
 C            2.57787784        2.48895761        1.46054070
 C            1.38919129        3.31230662        1.32173034
 C            3.23975799        0.38361587        0.50123893
 C            3.01678045        1.75699326        0.36106071
 C            2.87335212       -1.85406349       -0.32773719
 C            2.91262359       -0.48701313       -0.54732802
 C            1.10036433       -3.36582348       -0.12268362
 C            1.92910551       -2.64834356       -1.08185903
 C           -1.13548424       -2.95602066        0.66674504
 C           -0.27117972       -3.41127173       -0.33954276
 C           -3.12321972       -1.56807133        1.00312985
 C           -2.47769968       -2.70123881        0.36693535
 C           -3.96846295       -0.91559684        0.03364720
 C           -2.94375827        1.22686538        0.63108882
 C           -3.73220024        0.48284477       -0.24161089
 C           -1.36930394        3.09543858        0.85570875
 C           -2.46465717        2.44390698        0.16734019
 C            0.90713161        3.57624197        0.04292988
 C           -0.47477143        3.65464466       -0.14856598
 C            2.76426452        2.27766057       -0.90208432
 C            1.74416516        3.30748539       -1.03880675
 C            2.40579936        0.01799249       -1.74286632
 C            2.60487931        1.36455973       -2.01595822
 C            1.31240267       -2.10648555       -2.20448492
 C            1.49312938       -0.74163646       -2.50141926
 C           -0.68692538       -3.40462899       -1.66930581
 C            0.17326305       -2.76696587       -2.65401966
 C           -2.95077033       -2.76122633       -1.00630385
 C           -3.86492526       -1.64849381       -1.21499229
 C           -2.06344815       -3.10221837       -2.01272233
 C           -3.51482121        0.62909296       -1.67394352
 C           -3.59519279       -0.69030254       -2.27540751
 C           -2.26760776        2.61674746       -1.26388330
 C           -1.06298599        3.40180896       -1.45855699
 C           -2.57019571        1.55539093       -2.11709321
 C            1.19109179        3.19933896       -2.37571225
 C            1.77447317        2.02112834       -2.99774557
 C           -0.24773477        3.12851006       -2.54145697
 C            0.69548102       -0.11919972       -3.48422025
 C           -1.70319117        1.22972411       -3.17208532
 C            0.70608827        1.26396716       -3.59977147
 C           -0.54172529        1.97760488       -3.37544453
 C           -0.66748889       -2.14367086       -3.64565034
 C           -2.05255270       -2.32838417       -3.24493066
 C           -2.70746429       -1.02948307       -3.28193365
 C           -0.46494738       -0.74381085       -3.92207618
 C           -1.72936937       -0.05226976       -3.72369074
