   70
C70 / DATE: 7/ 1/2024 / Origin: Program Fullerene / C70 from database
 C            1.23566904        0.17065810        4.64322180
 C            2.47143257       -0.00363914        3.90831298
 C            2.51219878       -1.38201996        3.45547233
 C            0.41390881       -1.00882218        4.40854155
 C            1.17528049       -1.92063648        3.57730437
 C           -0.88158890       -0.56045405        3.93711932
 C            0.42384458        1.33270606        4.35350731
 C           -0.93597809        0.87404923        4.12024613
 C            0.78072045        2.17900320        3.22901592
 C            2.73513019        0.83923275        2.75149637
 C            1.81355593        1.80741471        2.36594912
 C            3.12216642       -1.39123359        2.14114468
 C            3.32655076       -0.00632483        1.73506222
 C            2.64638920       -2.28417855        1.18640806
 C            0.58696660       -2.44915048        2.43492395
 C            1.41310551       -2.91106669        1.41057794
 C           -1.38805925       -1.08694059        2.75655879
 C           -0.75714968       -2.18045223        2.15537905
 C           -2.29957294       -0.33325518        2.01920760
 C           -1.48894924        1.68178784        3.04601214
 C           -0.46921150        2.63757223        2.65646267
 C           -2.22097919        1.06235205        2.03416287
 C           -0.46986418        3.06730808        1.34220657
 C            1.73222130        2.18163964        1.02361170
 C            0.73847960        3.08547048        0.64992634
 C            3.16074286        0.31728500        0.39097353
 C            2.37688077        1.42104531        0.03579681
 C            3.06694891       -2.07015335       -0.12089096
 C            3.34104882       -0.70438438       -0.53513489
 C            2.40966140       -2.75569412       -1.21805334
 C            0.83741143       -3.68329477        0.40793376
 C            1.39174234       -3.65047342       -0.93565746
 C           -1.35493408       -2.79049520        1.04937452
 C           -0.61044809       -3.69133528        0.28953042
 C           -2.99673154       -0.95951225        1.00069083
 C           -2.52711130       -2.24791771        0.51951558
 C           -3.42791591       -0.18150839       -0.14503568
 C           -2.42607044        1.77304042        0.84503281
 C           -1.64169160        2.91206827        0.61214299
 C           -3.14792709        1.17887429       -0.20041344
 C           -1.74460533        3.60901962       -0.58375693
 C            0.74589855        3.59386408       -0.64240644
 C           -0.51238013        4.05836668       -1.20621272
 C            2.10656399        1.67207658       -1.31647630
 C            1.44579615        2.84746978       -1.67113340
 C            2.85148781       -0.54233395       -1.88860083
 C            2.25498373       -1.80307854       -2.30998562
 C            2.24294810        0.64709578       -2.25893348
 C            1.09116733       -1.78674150       -3.08351912
 C            0.29590873       -3.78114879       -1.87473108
 C           -0.93629093       -3.88699537       -1.11222020
 C            0.10821185       -2.75547534       -2.88450489
 C           -2.77786992       -2.30229372       -0.91491439
 C           -3.21272413       -0.98508408       -1.33774380
 C           -1.92274599       -3.02163824       -1.73018082
 C           -1.29060309       -2.35094610       -2.85401031
 C           -2.64941035       -0.38320272       -2.46184607
 C           -1.61549476       -1.02900144       -3.15598130
 C           -3.18509508        1.78511797       -1.45246118
 C           -2.60689131        3.09916624       -1.62505447
 C           -2.84968326        0.98794958       -2.62348776
 C           -0.55086044        3.67411985       -2.60530175
 C            0.63347377        2.88102635       -2.87830192
 C           -1.85743919        3.10170497       -2.87161169
 C           -1.93902192        1.76861156       -3.44212217
 C            1.42423582        0.62605583       -3.38280015
 C            0.73230576       -0.60508974       -3.72563512
 C           -0.67757203       -0.28076824       -3.86448160
 C            0.52107767        1.72967864       -3.64427296
 C           -0.79324516        1.16390942       -3.93494879
