   70
C70 / DATE: 7/ 1/2024 / Origin: Program Fullerene / C70 from database
 C            1.59180367        0.00475703        4.30480944
 C            0.77795127       -1.18041713        4.12238890
 C            1.41907606       -2.01832073        3.12815089
 C            2.65203164       -0.03433274        3.31296509
 C            2.52177994       -1.26141386        2.55949792
 C            2.61531681        1.21156678        2.58504904
 C            0.75910633        1.15802521        4.01159127
 C            1.44364969        1.94961508        3.01749233
 C           -0.58466851       -0.75615711        3.86767682
 C           -0.57239096        0.68760559        3.70145434
 C           -1.34143085       -1.50898582        2.97977414
 C            0.60341909       -2.73404386        2.26197027
 C           -0.78043860       -2.67108667        2.44404888
 C            1.10150409       -3.06314705        1.00226272
 C            2.64615609       -1.21731300        1.17428940
 C            2.09643699       -2.26162554        0.43288500
 C            2.88796573        1.20629426        1.22402955
 C            2.98629031       -0.01298966        0.53345190
 C            2.53254816        2.34381642        0.50989566
 C            0.70089962        2.58394314        2.03122702
 C            1.40011839        3.05715027        0.92786304
 C           -1.24104021        1.23123751        2.60894205
 C           -0.66357557        2.28608360        1.88054949
 C           -2.37015563       -0.87632238        2.28355270
 C           -2.28874683        0.50061543        2.05133303
 C           -3.23866150       -1.65472833        1.52185024
 C           -1.59083355       -3.52161096        1.69990986
 C           -2.89627352       -3.04604389        1.27874782
 C            0.35960828       -3.92130961        0.19380762
 C           -1.00514356       -4.23728059        0.58076212
 C            0.35620028       -3.71948629       -1.24384080
 C            2.32812251       -2.31185551       -0.93479114
 C            1.35263933       -2.94325914       -1.80739764
 C            3.14987287        0.00498553       -0.86219104
 C            2.81234904       -1.12172863       -1.60802472
 C            3.00026097        2.45101719       -0.79065275
 C            3.22491044        1.22752518       -1.53201476
 C            2.42895469        3.42937258       -1.69472908
 C            0.71950297        3.88766912        0.05112336
 C            1.26224201        4.16429616       -1.26411900
 C           -1.37066889        2.85248844        0.80624591
 C           -0.71137406        3.70699496       -0.07921798
 C           -3.05920300        1.08161882        1.05354921
 C           -2.55288287        2.25781975        0.37215671
 C           -3.76405847       -1.12412550        0.27686423
 C           -3.70107661        0.24008051        0.05781986
 C           -3.01776530       -3.28359642       -0.15225991
 C           -1.85242377       -4.01763685       -0.58236312
 C           -1.01764117       -3.45036912       -1.62123390
 C           -3.30615610       -2.00886329       -0.77662014
 C           -1.32779657       -2.21061229       -2.18366941
 C           -2.46366311       -1.49514299       -1.76446605
 C            0.98543479       -1.96233567       -2.81326047
 C            2.03035844       -0.95432397       -2.82539456
 C           -0.34436794       -1.56878295       -2.94126141
 C            2.54927151        1.36985720       -2.81435173
 C            2.09673523        2.74499777       -2.93331330
 C            1.73848479        0.33213812       -3.26350284
 C            0.20465004        3.93681840       -2.23497199
 C           -1.00601073        3.60932275       -1.50216324
 C            0.70063845        3.00382898       -3.22824472
 C           -2.76326694        2.06517680       -1.05618866
 C           -3.26748591        0.71656745       -1.24362929
 C           -2.60061643       -0.14760102       -2.10858163
 C           -1.82809303        2.57872514       -1.94716140
 C           -0.62220777       -0.34362339       -3.53080863
 C            0.45740989        0.61066589       -3.74720759
 C           -0.10874230        1.94693375       -3.61741319
 C           -1.79299323        0.39385181       -3.09870977
 C           -1.44184691        1.80700933       -3.04623199
