   70
C70 / DATE: 7/ 1/2024 / Origin: Program Fullerene / C70 from database
 C            1.64918480        0.05716858        4.50262087
 C            0.85097190       -1.14843894        4.46343717
 C            1.28218812       -1.95109235        3.32796411
 C            2.62547761       -0.03559239        3.43636461
 C            2.36853023       -1.24435232        2.67765517
 C            2.58778758        1.21776262        2.71928939
 C            0.76473157        1.16850850        4.18675354
 C            1.35811072        1.89254328        3.08792064
 C           -0.53706088       -0.73627846        4.50310103
 C           -0.56786267        0.63370018        4.01275282
 C           -1.45905555       -1.61901552        3.98080162
 C            0.29390066       -2.55734442        2.55835202
 C           -0.95161113       -2.71113070        3.16525508
 C            0.37371918       -2.49281937        1.15596015
 C            2.38755048       -1.15075092        1.29295256
 C            1.48887942       -1.90223867        0.53787847
 C            2.89244586        1.20276672        1.36996210
 C            2.97857287       -0.02923647        0.71186259
 C            2.47252085        2.29527140        0.62462707
 C            0.55110149        2.34442842        2.04972012
 C            1.20743430        2.81955151        0.91353643
 C           -1.27112149        0.92025478        2.83832971
 C           -0.75577843        1.84124946        1.91372547
 C           -2.55727948       -1.07435472        3.21648295
 C           -2.33588052        0.08922417        2.47247466
 C           -2.06969518       -3.18557967        2.38413184
 C           -3.15245172       -2.23058779        2.58340916
 C           -0.71587059       -2.88984257        0.36698969
 C           -1.89556219       -3.33242511        0.95936406
 C           -0.72714997       -2.56665003       -0.98785900
 C            1.54210053       -1.79797706       -0.85715161
 C            0.47755350       -2.28984877       -1.62167066
 C            3.17373972       -0.01485091       -0.66682321
 C            2.51322773       -0.97206057       -1.44636841
 C            3.00951685        2.41323048       -0.64848855
 C            3.54287616        1.20377945       -1.23864614
 C            2.27838506        3.11453902       -1.68731893
 C            0.44186198        3.39051403       -0.09319321
 C            0.96390439        3.47864385       -1.44715577
 C           -1.47326417        2.11062744        0.74359721
 C           -0.95993078        3.03016615       -0.17338772
 C           -2.95717572        0.25851344        1.22683665
 C           -2.53729504        1.28294242        0.37336462
 C           -3.80883681       -2.05246969        1.31440190
 C           -3.15258448       -2.93615334        0.36359189
 C           -3.80153626       -0.73466766        0.71698828
 C           -1.92713739       -2.20617248       -1.62065406
 C           -3.11301265       -2.23162468       -0.90020228
 C           -3.81310774       -0.97423355       -0.71136821
 C           -1.87291067       -1.35918298       -2.72403659
 C            0.43696850       -2.05242447       -2.99003002
 C           -0.74252945       -1.40316386       -3.52637660
 C            2.65828916       -0.95420353       -2.83448978
 C            1.58799209       -1.47732094       -3.65217143
 C            3.51671060        1.37704334       -2.67407741
 C            2.61105006        2.48243691       -2.95435078
 C            3.11315199        0.25703446       -3.49299035
 C           -0.28537284       -0.17597638       -4.14923955
 C            1.10630159       -0.38589917       -4.48903959
 C            1.53742360        1.95837921       -3.77918387
 C            2.02677295        0.71570582       -4.34344747
 C           -0.07637988        3.01191801       -2.34957094
 C           -1.30401738        2.92365792       -1.58209557
 C            0.22454289        2.04515135       -3.31153340
 C           -0.70889529        1.04173800       -3.61570403
 C           -3.01072667        1.30672731       -0.94200560
 C           -3.48637854        0.07781475       -1.54815338
 C           -2.62105224       -0.18221518       -2.69043748
 C           -2.27069424        2.01889887       -1.96728853
 C           -1.97625889        1.07628377       -3.03594552
