   70
C70 / DATE: 7/ 1/2024 / Origin: Program Fullerene / C70 from database
 C            0.99071192       -0.13722000        4.98659117
 C            2.33667537       -0.45572129        4.55726008
 C            2.25389102       -1.64137153        3.71112706
 C            0.16081091       -1.27988687        4.65510634
 C            0.85720432       -2.01919121        3.61942686
 C           -1.15794465       -0.76678085        4.36032544
 C            0.33401072        1.03238659        4.42283984
 C           -1.06240530        0.68709680        4.29097540
 C            0.95924615        1.74158927        3.39801923
 C            3.07141142        0.55193254        3.82138484
 C            2.35213890        1.70429600        3.30507585
 C            2.97735984       -1.36078839        2.48644867
 C            3.67411519       -0.10590121        2.67723033
 C            2.35512884       -1.58041769        1.26226656
 C            0.27181865       -2.13962624        2.35893502
 C            1.08414949       -2.15299755        1.21707856
 C           -1.80659040       -1.19703190        3.13939512
 C           -1.11143343       -1.97374253        2.21671639
 C           -1.77450661        1.10608798        3.10092230
 C           -2.51955148       -0.04718268        2.63601638
 C            0.20577232        2.26746678        2.33539689
 C           -1.13405511        1.89598356        2.14841225
 C            0.85431988        2.98637050        1.33418370
 C            2.99218309        2.04881435        2.05099085
 C            3.66324241        0.84636968        1.58350420
 C            2.28103499        2.80054117        1.12794713
 C            2.81141274       -0.88596529        0.14735876
 C            3.36265069        0.39369229        0.30596404
 C            2.35245716       -1.26689666       -1.10955209
 C            0.49559570       -2.38840690       -0.02708821
 C            1.16631571       -2.01056805       -1.20025578
 C           -1.66350813       -2.09122532        0.94424653
 C           -0.87542476       -2.62273785       -0.06688810
 C           -2.89386809       -0.06687495        1.30573192
 C           -2.72828761       -1.25263967        0.59421303
 C           -1.70781597        1.95670101        0.87050006
 C           -2.79540725        1.11957644        0.59651427
 C            0.23387297        3.10511929        0.02642807
 C           -1.00574058        2.53560182       -0.19281702
 C            2.47652653        2.53067239       -0.28852718
 C            3.11415053        1.35298809       -0.67154816
 C            1.26068103        2.92765175       -0.98242857
 C            2.77109852       -0.50108816       -2.18938120
 C            2.95366637        0.91893739       -1.97720879
 C            2.12657106       -0.65687308       -3.47149283
 C            0.56683556       -2.24990394       -2.44769875
 C            1.01455344       -1.57354439       -3.58156038
 C           -1.48046960       -2.91596135       -1.27671623
 C           -0.69502902       -2.83701893       -2.49223875
 C           -3.23049596       -1.30368325       -0.70804504
 C           -2.77406841       -2.31866996       -1.55131904
 C           -3.37189011        1.14228655       -0.66451011
 C           -3.77217072       -0.12901700       -1.24224948
 C           -1.38531974        2.25344634       -1.50168697
 C           -2.70176584        1.87763958       -1.71566858
 C            0.94186733        2.29108897       -2.18146018
 C            1.96156223        1.57828138       -2.80572067
 C            1.64411205        0.65872427       -3.87403097
 C           -0.39901002        1.97663581       -2.46393922
 C            0.04571640       -0.92082404       -4.44501561
 C            0.26380660        0.50356771       -4.26629539
 C           -0.71963401        1.25493207       -3.63094801
 C           -1.60450652       -2.49044285       -3.57704956
 C           -2.90686642       -2.20726179       -2.99460837
 C           -1.25842829       -1.39052552       -4.46166399
 C           -3.84523916        0.07597300       -2.67837970
 C           -3.08279806        1.28029176       -2.97618218
 C           -2.04265389        0.92365694       -3.91191802
 C           -3.39443823       -0.97116590       -3.56954239
 C           -2.33735469       -0.41724533       -4.39889765
