   70
C70 / DATE: 7/ 1/2024 / Origin: Program Fullerene / C70 from database
 C            1.26496090       -0.08307805        4.50514152
 C            2.53715277       -0.29901451        3.84363816
 C            2.48781339       -1.60580234        3.21057241
 C            0.42616585       -1.24304791        4.24231428
 C            1.13187399       -2.10515595        3.32360906
 C           -0.88292802       -0.76807243        3.86210013
 C            0.49346549        1.10508581        4.18286184
 C           -0.86981759        0.68483747        3.91910630
 C            1.05498718        2.09917232        3.39671662
 C            2.98594237        0.65802961        2.84854793
 C            2.32841128        1.87220733        2.71831672
 C            3.05612100       -1.48155669        1.88075159
 C            3.35162006       -0.07919308        1.65083027
 C            2.47687614       -2.19668641        0.84010162
 C            0.49843869       -2.52638116        2.16040953
 C            1.29943222       -2.90986690        1.08926003
 C           -1.55510402       -1.37545665        2.80631239
 C           -0.84464411       -2.19763115        1.91578927
 C           -2.70537745       -0.73135831        2.36041186
 C           -1.66205591        1.37761385        3.00584447
 C           -2.79417775        0.70793065        2.55562904
 C            0.20022697        2.84088731        2.48747110
 C           -1.08592985        2.37770919        2.20231943
 C            2.23677326        2.48337156        1.40620851
 C            1.04554256        3.31139104        1.40549589
 C            3.07935367        0.45088465        0.39035873
 C            2.55076397        1.74371945        0.26625004
 C            2.74500159       -1.77951762       -0.46215322
 C            3.01151128       -0.42552388       -0.69383771
 C            2.36343684       -2.61075447       -1.51105507
 C            0.69760093       -3.59610772        0.04539236
 C            1.36427213       -3.62455225       -1.24211233
 C           -1.39830135       -2.50706785        0.66505503
 C           -0.71627722       -3.36497945       -0.18769606
 C           -3.22451908       -1.02174824        1.03858781
 C           -2.42198766       -1.71825885        0.14793008
 C           -3.56009199        1.25791719        1.46393123
 C           -3.92214312        0.15868170        0.58378814
 C           -1.71029384        2.79498378        1.01502909
 C           -2.95505713        2.29214230        0.65699218
 C            0.46079539        3.62553800        0.19309394
 C           -0.97416798        3.46357270        0.04036097
 C            2.08933761        2.19131336       -0.97622328
 C            1.08423470        3.15449967       -1.03184160
 C            2.88880515        0.10435537       -1.97221023
 C            2.35750701        1.44512677       -2.11813556
 C            2.08081041       -2.04877678       -2.82016887
 C            2.36335306       -0.71043630       -3.05448870
 C            0.34630030       -3.53324518       -2.27152845
 C           -0.92079209       -3.24279071       -1.62002719
 C            0.82811290       -2.62287837       -3.29456234
 C           -2.45616151       -1.42043933       -1.22524792
 C           -1.70923415       -2.20727398       -2.11663512
 C           -3.70572897        0.59494137       -0.77389717
 C           -3.21221209        1.96363581       -0.73668626
 C           -3.13708901       -0.27852180       -1.68842729
 C           -1.24277901        3.19636477       -1.36605321
 C            0.04090980        3.03875871       -2.03752529
 C           -2.31528874        2.37888313       -1.72326928
 C            1.38597814        1.42599348       -3.20284404
 C            1.43370956        0.10623436       -3.81909466
 C            0.17122169        2.09798606       -3.05261272
 C           -0.09815027       -1.81203413       -3.93521355
 C           -1.45362176       -1.75148804       -3.41070431
 C            0.27330031       -0.46168345       -4.32716315
 C           -2.77486168        0.28257881       -2.90306001
 C           -2.23384014        1.63190704       -2.89909769
 C           -0.98371508        1.59325910       -3.64154943
 C           -2.02443206       -0.50093112       -3.85359346
 C           -0.94133996        0.32979733       -4.35781438
