   70
C70 / DATE: 7/ 1/2024 / Origin: Program Fullerene / C70 from database
 C            1.17443751       -0.09395068        4.56042418
 C            2.48499771       -0.31387690        3.98200082
 C            2.47776000       -1.63577724        3.37568497
 C            0.36320930       -1.26510038        4.26545080
 C            1.11461723       -2.11134813        3.36272205
 C           -0.94013889       -0.80409958        3.83937645
 C            0.41693792        1.08105120        4.16716118
 C           -0.93403888        0.65170944        3.85420359
 C            1.01396779        2.05348372        3.37925017
 C            2.99113044        0.62445232        2.99378306
 C            2.30270568        1.80180051        2.74200925
 C            3.16639158       -1.54331378        2.11208384
 C            3.49824163       -0.14766434        1.87447092
 C            2.69978286       -2.27523390        1.03096212
 C            0.54000087       -2.45795057        2.14297999
 C            1.35567569       -2.69528005        1.02264612
 C           -1.57349648       -1.44562124        2.78238976
 C           -0.84389751       -2.33814939        1.98520417
 C           -2.68836646       -0.81023379        2.24694790
 C           -1.68309930        1.32884384        2.88980572
 C           -2.74962851        0.63976060        2.31059905
 C            0.19697347        2.78949962        2.43508724
 C           -1.14221428        2.45000025        2.24251293
 C            2.22647614        2.29308766        1.37666876
 C            1.02068664        3.08997743        1.27396338
 C            3.38453415        0.33726336        0.56910325
 C            2.58339538        1.46000085        0.31955170
 C            3.31268706       -1.97941240       -0.17538466
 C            3.59955080       -0.58104976       -0.45329261
 C            2.81521814       -2.58479778       -1.38341500
 C            0.77192757       -3.17053897       -0.16540319
 C            1.48845138       -3.15546516       -1.35915260
 C           -1.44245187       -2.90432841        0.86767474
 C           -0.60720628       -3.33154861       -0.23950534
 C           -3.22212868       -1.22857756        0.96372264
 C           -2.64702455       -2.30648433        0.31583290
 C           -3.35213355        1.11238064        1.07832606
 C           -3.54413789       -0.03292216        0.20268411
 C           -1.78258496        2.98724796        1.12688755
 C           -2.92449601        2.30886618        0.53715407
 C            0.39999809        3.22401969        0.04129010
 C           -0.96468776        3.49453599        0.03586361
 C            1.93306456        1.61293194       -0.91417518
 C            0.98044519        2.62838513       -1.08084404
 C            3.10912515       -0.29780591       -1.78460312
 C            2.84606559       -1.56976574       -2.42179715
 C            2.19163955        0.72506159       -1.96341385
 C            0.82045225       -2.74661865       -2.58559329
 C            1.63113083       -1.70007272       -3.19511765
 C           -1.30072139       -3.00412128       -1.47913505
 C           -2.50474496       -2.26826910       -1.12675579
 C           -0.56992572       -2.61931951       -2.60446263
 C           -3.17899434        0.05413118       -1.14114789
 C           -2.81947951       -1.11240653       -1.83402736
 C           -2.81871054        2.43398161       -0.90590754
 C           -1.71964456        3.34340989       -1.19197755
 C           -3.00874135        1.31961541       -1.72311933
 C            0.37527476        2.80623969       -2.32577112
 C           -1.02824794        3.19274348       -2.38362596
 C            1.33438750        0.68310135       -3.06483330
 C            0.98826978       -0.55302870       -3.63827896
 C            0.60901518        1.82856531       -3.37444425
 C           -1.14474188       -1.72132633       -3.50815843
 C           -2.37578632       -1.03544261       -3.14666025
 C           -0.28995131       -0.73711539       -4.14821388
 C           -2.65770144        1.43317139       -3.06522974
 C           -1.65551418        2.41762520       -3.43786486
 C           -0.60625742        1.72465629       -4.16102899
 C           -2.39287165        0.23815111       -3.83378444
 C           -1.10485897        0.40826574       -4.49035415
