   70
C70 / DATE: 7/ 1/2024 / Origin: Program Fullerene / C70 from database
 C            1.58049571       -0.04452682        4.98889644
 C            0.70136801       -1.18223285        5.17488497
 C            1.22296675       -2.26424129        4.36728470
 C            2.55505239       -0.38877541        3.96305011
 C            2.29358812       -1.73990035        3.53239850
 C            2.52801841        0.65557337        2.96830740
 C            0.77741829        1.04064641        4.46347587
 C            1.51959014        1.62158187        3.36661534
 C           -0.60340369       -0.83886892        4.62884046
 C           -0.54541074        0.53016788        4.16435695
 C            0.09239993       -2.87044363        3.69756146
 C           -0.96776013       -1.87116571        3.67795683
 C            0.35529233       -3.53315430        2.51661341
 C            2.25803098       -2.03460292        2.16914291
 C            1.58496865       -3.19570383        1.81082837
 C            2.59413915        0.32143406        1.61697032
 C            2.40689686       -1.01050285        1.21094996
 C            2.29522056        1.33533997        0.71294444
 C            0.80196972        2.21034732        2.33991334
 C            1.46959281        2.37975650        1.14182574
 C           -1.07615310        0.84223820        2.91821064
 C           -0.56546660        1.95702412        2.25362506
 C           -1.52017855       -1.49913613        2.44841034
 C           -1.71734520       -0.14433821        2.15944151
 C           -0.67196811       -3.53357918        1.50278993
 C           -1.51229823       -2.42613552        1.40313703
 C            1.35497574       -3.48042253        0.41391126
 C           -0.00222270       -3.99993085        0.31347886
 C            2.16070405       -1.28395051       -0.15243870
 C            1.79681619       -2.58018215       -0.54857054
 C            2.39416585        1.07286451       -0.64758256
 C            2.15560899       -0.23160918       -1.08940600
 C            2.23054326        2.14553021       -1.52113977
 C            0.85253087        3.17058654        0.18646824
 C            1.50599387        3.30049200       -1.02991015
 C           -1.22082319        2.38742670        1.10411949
 C           -0.54278986        3.25313334        0.24220891
 C           -2.22777127        0.22375840        0.91509250
 C           -2.22825368        1.57601990        0.58356102
 C           -1.98410733       -2.05559853        0.13995067
 C           -2.33744239       -0.72660726       -0.10632369
 C           -0.65753153       -3.85388388       -0.89028602
 C           -1.77134271       -2.91679987       -0.93852660
 C            1.37970982       -2.81361307       -1.85452555
 C            0.16357030       -3.58574253       -2.05044939
 C            1.72178948       -0.45086037       -2.40684229
 C            1.36123842       -1.72944655       -2.81279467
 C            1.77944315        1.90344825       -2.87498720
 C            1.35799184        0.62827983       -3.21573363
 C            0.83330457        3.92994913       -2.14596797
 C            0.98690640        3.05341496       -3.29387329
 C           -1.25822078        3.84742331       -0.79400087
 C           -0.57138823        4.25041996       -2.00811078
 C           -2.88642683        1.97612510       -0.57076348
 C           -2.51675215        3.24140659       -1.18325456
 C           -2.64687678       -0.31317950       -1.41134347
 C           -3.06666530        0.99989495       -1.62861041
 C           -1.83962859       -2.39910670       -2.29292953
 C           -0.66238632       -2.87648192       -3.00027104
 C            0.18125961       -1.89783554       -3.65195550
 C           -2.23704071       -1.08491915       -2.50310642
 C            0.30113151        0.48396483       -4.11389081
 C           -0.43577524       -0.76047021       -4.13957355
 C           -1.77210985       -0.44770595       -3.65428548
 C           -0.33056689        2.83438794       -3.86608421
 C           -1.27710069        3.65913941       -3.13318660
 C           -2.49615251        3.05597716       -2.62388919
 C           -2.75297539        1.65304253       -2.89126047
 C           -0.68571144        1.54353337       -4.23549018
 C           -1.96664601        0.98132556       -3.81585838
