   70
C70 / DATE: 7/ 1/2024 / Origin: Program Fullerene / C70 from database
 C            1.27532427        0.02660246        4.65787142
 C            2.47360547       -0.05614826        3.84808285
 C            2.49500310       -1.36950870        3.23045100
 C            0.44438925       -1.12541740        4.34147500
 C            1.19460937       -1.97785384        3.44133440
 C           -0.84948034       -0.63697153        3.90424491
 C            0.44629224        1.20589816        4.54195622
 C           -0.90904128        0.76883041        4.23880790
 C            0.78907993        2.22049687        3.56051946
 C            2.68955935        0.92207063        2.79501118
 C            1.80695262        1.99029284        2.62750002
 C            2.96043435       -1.21501052        1.85887688
 C            3.14767592        0.20340911        1.61851928
 C            2.35767446       -1.98161479        0.86589619
 C            0.55568269       -2.50982613        2.33122635
 C            1.34804567       -2.86243710        1.24811668
 C           -1.33689892       -1.06066330        2.67182839
 C           -0.78539669       -2.19732331        2.08558528
 C           -2.09539410       -0.19425256        1.88283948
 C           -1.44695849        1.68948648        3.25809924
 C           -0.47717726        2.75847842        3.10031794
 C           -2.07067770        1.19008993        2.11928240
 C           -0.48995095        3.48281400        1.92153207
 C            1.73324011        2.61159978        1.37749832
 C            0.73971764        3.56502853        1.15925891
 C            2.83053562        0.71552369        0.36977025
 C            2.38088869        2.02937984        0.28188547
 C            2.37612755       -1.51746991       -0.45240170
 C            2.61182311       -0.15657216       -0.70024605
 C            1.85318067       -2.33765774       -1.45710416
 C            0.76861965       -3.66500357        0.28443153
 C            1.18452720       -3.50348941       -1.09323577
 C           -1.38323098       -2.73195358        0.94290426
 C           -0.67755124       -3.73329673        0.27262613
 C           -2.65606999       -0.68126289        0.70100336
 C           -2.34328638       -1.97161530        0.25743163
 C           -3.28658134        0.20890299       -0.16565498
 C           -2.31647723        2.07463135        1.06831462
 C           -1.55164975        3.23298043        0.96014660
 C           -2.99671931        1.62307932       -0.05138373
 C            0.36967054        3.91879947       -0.19810726
 C           -1.05321934        3.63324549       -0.34709659
 C            2.27455423        2.60941883       -0.97690212
 C            1.23458937        3.59498098       -1.22779812
 C            2.44289352        0.37208036       -1.98393524
 C            2.37349642        1.75519113       -2.14817529
 C            1.69097508       -1.83971500       -2.74544304
 C            1.98021785       -0.44427408       -3.01254991
 C            0.50404474       -2.19158200       -3.51564205
 C            0.09180440       -3.99309068       -1.91918042
 C           -1.07055051       -4.15173508       -1.05646853
 C           -0.31352072       -3.22375505       -3.07977591
 C           -2.82666081       -2.39264050       -0.98567460
 C           -2.18861148       -3.49117435       -1.68423841
 C           -1.74309808       -2.98696681       -2.97508465
 C           -3.37065907       -0.09845312       -1.58218971
 C           -3.14485057       -1.39802502       -1.99242634
 C           -2.24844854       -1.62927830       -3.11116512
 C           -2.59772841        2.10134148       -1.36878117
 C           -1.52034022        2.97592209       -1.48683310
 C           -2.72185171        0.98801932       -2.29621501
 C            0.67314780        3.32405890       -2.53523958
 C            1.48432836        2.29704457       -3.16054768
 C           -0.71544655        2.90950714       -2.62345253
 C            0.94813126        0.05235526       -3.91546952
 C           -0.10159721       -0.94537847       -3.95007649
 C           -1.38461631       -0.61170070       -3.51530117
 C           -1.68087952        0.71480779       -3.18141062
 C            0.59345036        1.38801974       -3.85408491
 C           -0.76967189        1.72873014       -3.47535415
