   70
C70 / DATE: 7/ 1/2024 / Origin: Program Fullerene / C70 from database
 C            1.51408386       -0.12812189        4.95765606
 C            0.65083089       -1.29084829        5.02949564
 C            1.17127722       -2.27721646        4.10349741
 C            2.50928351       -0.36622519        3.92179644
 C            2.28368407       -1.68588588        3.38236498
 C            2.47662165        0.75745124        3.00874579
 C            0.70139508        0.98813854        4.51886549
 C            1.43675906        1.65817163        3.47255171
 C           -0.66529190       -0.90292880        4.54689430
 C           -0.62200007        0.49761543        4.18739679
 C            0.05345382       -2.76851662        3.31908044
 C           -1.05447971       -1.85230085        3.52866981
 C            0.30404493       -3.16630220        2.01126209
 C            2.30679916       -1.86068344        2.00588055
 C            1.57760289       -2.92465019        1.48956833
 C            2.57363218        0.52997342        1.63071974
 C            2.61535863       -0.78753582        1.15456058
 C            2.15349876        1.55555935        0.77054989
 C            0.71751542        2.30479516        2.49116749
 C            1.40450812        2.59429954        1.32974144
 C           -1.17295116        0.90089277        2.97209905
 C           -0.64887920        2.03565927        2.36003677
 C           -1.72644655       -1.39594212        2.40178410
 C           -1.87041589       -0.01546781        2.17984314
 C           -0.77338626       -3.19029318        1.12660608
 C           -1.80325727       -2.26155111        1.31477853
 C           -0.57393922       -3.77304755       -0.12157003
 C            1.84632135       -3.30999197        0.18770563
 C            0.79302410       -3.96533707       -0.56407460
 C            2.61113163       -1.01628238       -0.22490366
 C            2.46698849       -2.33004115       -0.68456667
 C            2.07003838        1.31243671       -0.60756344
 C            2.40414540        0.05064971       -1.10529049
 C            1.54729721        2.29909593       -1.46236453
 C            0.80315983        3.51881390        0.50318088
 C            1.10700282        3.49656905       -0.90443561
 C           -1.28897921        2.55069938        1.23413781
 C           -0.63895389        3.60865594        0.60732308
 C           -2.41741678        0.42324144        0.96595175
 C           -2.08676449        1.69028394        0.46151404
 C           -2.63497715       -1.91039278        0.26236818
 C           -3.00752626       -0.51444051        0.12498480
 C           -1.34982440       -3.32762954       -1.26551335
 C           -2.40074639       -2.45123055       -1.06571954
 C            0.88869548       -3.52483602       -1.94275944
 C            1.99328196       -2.58618339       -2.03490000
 C           -0.43231331       -3.09307276       -2.36916849
 C            2.27887614       -0.20321303       -2.46722192
 C            1.87410879       -1.52390443       -2.91113867
 C            1.24449127        1.99823713       -2.79965910
 C            1.58619470        0.75184454       -3.31069361
 C            0.29391080        2.74874561       -3.49931943
 C            0.02755604        4.23343011       -1.53018562
 C           -1.12939576        4.09862256       -0.65592272
 C           -0.39189102        3.84728535       -2.85326103
 C           -2.39994814        2.02210970       -0.87389843
 C           -2.10032657        3.29776888       -1.36016975
 C           -1.79753177        3.47725830       -2.76789384
 C           -3.13280984       -0.23273456       -1.28925701
 C           -2.62292496       -1.38301411       -2.02049896
 C           -2.83652016        1.03300408       -1.76753315
 C           -0.54400735       -1.92804641       -3.12534334
 C            0.62380233       -1.35345130       -3.63091499
 C            0.60566839        0.01398372       -4.10128790
 C           -1.72358875       -1.17427942       -3.06636576
 C           -0.71560254        2.04655994       -4.26741790
 C           -2.00111091        2.36361474       -3.66604699
 C           -2.52727781        1.13114515       -3.12379513
 C           -0.61728894        0.60268461       -4.36913255
 C           -1.80727075        0.03630203       -3.75299117
