   70
C70 / DATE: 7/ 1/2024 / Origin: Program Fullerene / C70 from database
 C            1.33935819       -0.14237149        4.41539334
 C            2.58266447       -0.45039086        3.75442054
 C            2.55511204       -1.85724603        3.38020238
 C            0.51166069       -1.34143366        4.40134302
 C            1.22635129       -2.36746249        3.66645335
 C           -0.81305396       -0.94065725        3.95457286
 C            0.52621534        0.93789318        3.89593302
 C           -0.84778539        0.50638181        4.05221539
 C            0.88901784        1.59768417        2.71690701
 C            2.94132510        0.29963165        2.56849438
 C            2.04475837        1.22143736        2.01798175
 C            3.07669131       -1.95275666        2.02519937
 C            3.60415222       -0.64255845        1.68936973
 C            2.36514824       -2.66359900        1.05907463
 C            0.55611615       -3.08182963        2.68437310
 C            1.23807250       -3.39435637        1.43949661
 C           -1.38068494       -1.55674891        2.83823471
 C           -0.81878225       -2.73264917        2.34705133
 C           -2.28434326       -0.83766133        2.04787251
 C           -1.81674955        1.18616212        3.34308732
 C           -2.69970666        0.42082900        2.48544933
 C           -0.08461926        2.36216953        2.07119233
 C           -1.39740880        2.32035653        2.54731604
 C            0.15620337        2.86329804        0.79167347
 C            2.19607286        1.58400517        0.67516449
 C            1.21052975        2.33921313        0.03558196
 C            3.73140590       -0.30700770        0.35632411
 C            3.17634969        0.95736040       -0.09020867
 C            2.58323814       -2.38134842       -0.29368472
 C            3.37753817       -1.29412882       -0.64840646
 C            1.77999117       -2.97531430       -1.26441954
 C            0.20483963       -3.68081807        0.46277388
 C           -1.02952191       -3.09275042        0.95675681
 C            0.50539427       -3.55974527       -0.88062819
 C           -2.51380257       -1.21877215        0.71913642
 C           -1.75451437       -2.23350332        0.13801926
 C           -3.34744452       -0.45382965       -0.08937307
 C           -3.27190113        1.36605885        1.53972535
 C           -2.49441386        2.59556500        1.63851262
 C           -3.67732576        0.90696561        0.29629135
 C           -0.84207393        3.61704936        0.17783039
 C           -2.22862301        3.33340427        0.49707934
 C           -0.77602559        3.87508773       -1.24240752
 C            1.23291710        2.47456683       -1.36468424
 C            0.27742426        3.25199664       -2.01108594
 C            2.99245317        0.84810796       -1.52132329
 C            3.08991756       -0.56234930       -1.87070956
 C            2.02115613        1.61963398       -2.13843157
 C            1.58801328       -2.31596579       -2.55125907
 C            2.20065550       -1.08595866       -2.80483560
 C           -0.49972286       -3.01190344       -1.77056936
 C           -1.54168207       -2.24922947       -1.24611982
 C            0.20109505       -2.53904090       -2.94571096
 C           -3.14821406       -0.47397225       -1.52584221
 C           -2.20679631       -1.33773235       -2.07322347
 C           -3.51961916        1.75714070       -0.87377160
 C           -2.89267058        2.99017836       -0.74886267
 C           -2.04773359        3.46588434       -1.82605618
 C           -3.21482305        0.89781248       -2.00920273
 C           -0.33176637        2.74325583       -3.22536812
 C           -1.75007035        2.58377382       -2.94055903
 C           -2.32767679        1.31282260       -3.00297111
 C            1.56395962        1.20676354       -3.38849132
 C            1.62387979       -0.20839211       -3.72107156
 C            0.32572637        1.74706151       -3.92872820
 C           -0.42893886       -1.62043355       -3.76724678
 C           -1.68898028       -1.03530961       -3.33280042
 C           -1.73173428        0.34157287       -3.80396496
 C            0.36786117       -0.56384044       -4.35457503
 C           -0.45405636        0.63194291       -4.42991053
