   70
C70 / DATE: 7/ 1/2024 / Origin: Program Fullerene / C70 from database
 C            1.32905615       -0.04221259        4.18835626
 C            2.41659093       -0.24790408        3.24741149
 C            2.44411221       -1.66734141        2.96453042
 C            0.45827972       -1.20562075        4.09789444
 C            1.09676288       -2.15630222        3.21608702
 C           -0.86510528       -0.73412783        3.76352627
 C            0.50067930        1.14258121        4.05579448
 C           -0.88319494        0.69899081        3.99131785
 C            0.93056154        2.16632090        3.22150991
 C            2.59264720        0.65900140        2.20413530
 C            2.06247687        1.93631728        2.33262480
 C            2.99960771        0.19981654        0.94625164
 C            3.09315506       -2.10061820        1.82260347
 C            3.45802963       -1.11109266        0.81791807
 C            2.52287964       -3.23365014        1.12081245
 C            0.37453804       -2.71194094        2.16181481
 C            1.08859368       -3.44876642        1.21757461
 C           -1.51785818       -1.24313042        2.64471664
 C           -0.87765099       -2.17956474        1.81469339
 C           -2.64829953       -0.56846614        2.18192365
 C           -1.81894824        1.46154746        3.30614578
 C           -2.81993520        0.77997821        2.50308077
 C           -0.04611423        2.96854281        2.50153539
 C           -1.39122208        2.63541585        2.55551623
 C            1.86665793        2.74613041        1.15100236
 C            0.54055141        3.33874753        1.22653346
 C            2.73451165        0.95668399       -0.20614960
 C            2.30863858        2.28983454       -0.08245990
 C            2.83968074        0.35395638       -1.47385770
 C            3.40032900       -1.75999357       -0.47826319
 C            2.85993069       -3.09445271       -0.28052544
 C            2.97001618       -1.03117192       -1.57805117
 C            0.57413762       -3.57745283       -0.13505244
 C            1.69863290       -3.48818885       -1.05446677
 C           -1.44372817       -2.50832585        0.57793559
 C           -0.62769401       -2.95868372       -0.45519703
 C           -3.36952993       -1.10257549        1.12297981
 C           -2.73232793       -2.09163949        0.27572444
 C           -4.12889323       -0.20531131        0.26905181
 C           -3.24281692        1.71409876        1.47235469
 C           -2.18101380        2.69366484        1.33564154
 C           -3.84811563        1.21749546        0.33146529
 C           -0.23967169        3.36861037        0.07151117
 C           -1.54151401        2.85322106        0.10559746
 C            1.80709765        2.95858022       -1.19209434
 C            0.43562838        3.44247426       -1.14126928
 C            2.52276103        1.07143041       -2.62550449
 C            2.04766863        2.42959978       -2.51143533
 C            1.74407101        0.42425531       -3.66735786
 C            2.30438295       -1.70553117       -2.60351176
 C            1.50414626       -2.87575841       -2.28045437
 C            1.57680387       -0.95218413       -3.61158486
 C           -0.87651090       -2.54545541       -1.76870896
 C            0.15068689       -2.58196886       -2.70934891
 C            0.24114177       -1.52737184       -3.70329772
 C           -3.05674450       -1.78015314       -1.10548755
 C           -3.95146080       -0.63587859       -1.10513130
 C           -2.05008137       -1.84747738       -2.06446731
 C           -3.33056466        1.61681256       -0.96626799
 C           -2.12394276        2.31521159       -1.05182629
 C           -3.59040110        0.52713173       -1.89304353
 C           -0.22417221        3.00892727       -2.35432674
 C            0.80738221        2.53499995       -3.26349948
 C            0.60532732        1.28023218       -3.96471255
 C           -1.42025268        2.31061133       -2.25844034
 C           -0.85630583       -0.70230372       -3.90015691
 C           -2.06496918       -0.93693866       -3.12477205
 C           -2.72848838        0.34871795       -2.96191922
 C           -0.67311114        0.73829282       -4.00495967
 C           -1.73751574        1.37132243       -3.23997072
