   70
C70 / DATE: 7/ 1/2024 / Origin: Program Fullerene / C70 from database
 C            1.50790852        0.02196643        4.71273066
 C            0.69517356       -1.17933605        4.75579966
 C            1.25880720       -2.13759297        3.82398114
 C            2.52661706       -0.16798904        3.69433849
 C            2.41086101       -1.51200207        3.18508548
 C            2.41601531        0.91483602        2.75130667
 C            0.65364276        1.11573242        4.28235537
 C            1.25547993        1.70912559        3.11358738
 C           -0.68522039       -0.78508555        4.58310419
 C           -0.69533636        0.61363854        4.16435605
 C           -1.54186654       -1.67404825        3.95316620
 C            0.40576692       -2.92560036        3.04743943
 C           -0.98097298       -2.75496118        3.14602911
 C            0.92603033       -3.49892316        1.88846053
 C            2.61772852       -1.74604653        1.82998551
 C            2.17090729       -2.97100172        1.35798146
 C            2.61386541        0.65760495        1.40071239
 C            2.74237064       -0.65983624        0.93642235
 C            2.16448028        1.61962662        0.51187603
 C            0.43894411        2.14819433        2.07976622
 C            1.05246249        2.38967621        0.86129804
 C           -1.46554049        0.99236010        3.06361116
 C           -0.92367214        1.82814435        2.07013748
 C           -2.67270826       -1.13019035        3.22882519
 C           -2.60382723        0.24806269        2.77849978
 C           -1.80253289       -2.88615382        1.94798592
 C           -2.90278121       -1.96280221        2.05917017
 C            0.04945253       -3.71559070        0.74961734
 C           -1.17647975       -3.06658829        0.71996256
 C            2.19320588       -3.24087348       -0.05685839
 C            0.87637057       -3.74074374       -0.43073572
 C            2.75993551       -0.88287448       -0.45664017
 C            2.51646378       -2.16080980       -0.95899065
 C            2.49698048        1.48966070       -0.82394192
 C            2.62647187        0.19886210       -1.34456231
 C            2.16208277        2.54439653       -1.66293957
 C            0.31747995        3.00779267       -0.14038161
 C            0.98614323        3.32464813       -1.32107014
 C           -1.65463704        2.08036833        0.89649246
 C           -1.07267328        2.85213419       -0.12696510
 C           -3.14699624        0.27539879        1.44196759
 C           -3.17078168       -1.08663179        0.94605438
 C           -2.72795600        1.24897922        0.55852320
 C           -1.52532900       -2.26066512       -0.38681630
 C           -2.57625498       -1.33268823       -0.28876440
 C            0.44779690       -2.99629904       -1.58998504
 C            1.61584547       -2.29724571       -2.08350413
 C           -0.76735327       -2.31351049       -1.57273981
 C            2.18733955       -0.06435652       -2.65167266
 C            1.39948740       -1.18787967       -2.87062042
 C            2.16321468        2.33485303       -3.09313545
 C            2.09459364        0.97344684       -3.57561493
 C            0.24638113        3.57826876       -2.54185440
 C            1.04168881        3.07210718       -3.65252190
 C           -1.80265800        3.04039993       -1.30688603
 C           -1.13297607        3.42775364       -2.53843819
 C           -2.93624155        0.98318688       -0.78295525
 C           -2.66576595       -0.31385551       -1.23671494
 C           -2.80263046        2.04865529       -1.64988108
 C           -0.97079498       -1.35385323       -2.57292161
 C            0.12129653       -0.99859120       -3.37640684
 C           -2.06642518       -0.49515673       -2.47987619
 C            1.03228480        0.91520850       -4.57162074
 C            0.42254537        2.23164087       -4.66094969
 C           -0.03098357       -0.05964918       -4.38744284
 C           -1.80124521        2.74853444       -3.64136359
 C           -2.71547077        1.77948244       -3.06697814
 C           -2.28456406        0.45785657       -3.47346041
 C           -1.01665533        2.05546465       -4.64611751
 C           -1.29479136        0.63136446       -4.51830151
