   70
C70 / DATE: 7/ 1/2024 / Origin: Program Fullerene / C70 from database
 C            1.52985884        0.02248841        4.62896839
 C            0.71224420       -1.16913067        4.49686197
 C            1.22000550       -1.94718283        3.38102642
 C            2.55387271       -0.02935623        3.60214410
 C            2.41271640       -1.27786117        2.88759995
 C            2.47890711        1.19378742        2.83410863
 C            0.68202907        1.16710332        4.34445731
 C            1.27867174        1.89622482        3.24922051
 C           -0.67012005       -0.74584696        4.45714746
 C           -0.67318743        0.68852772        4.18678026
 C           -1.56721070       -1.54370483        3.76656495
 C            0.31310850       -2.48033549        2.45976509
 C           -1.04770091       -2.48060267        2.77279066
 C            0.71872289       -2.65266317        1.12925427
 C            2.63382871       -1.27949919        1.52130366
 C            2.01135386       -2.26523203        0.77434346
 C            2.74657023        1.13812227        1.47028255
 C            3.02383973       -0.10032593        0.87530178
 C            2.24956705        2.16468051        0.67194461
 C            0.46345760        2.40947562        2.25080331
 C            1.08540674        2.82651299        1.07825823
 C           -1.45218911        1.18234147        3.13892134
 C           -0.89834135        2.06989102        2.20399539
 C           -2.72800866       -0.90078196        3.18614804
 C           -2.61969576        0.49777787        2.81333693
 C           -2.02389497       -2.57556597        1.70365845
 C           -3.09742332       -1.64695752        2.00007312
 C           -0.23394981       -2.88125579        0.12535588
 C           -1.58582952       -2.65946484        0.39067231
 C            0.17912172       -3.04059305       -1.20390817
 C            2.45613302       -2.46213497       -0.51932082
 C            1.53675500       -2.98698515       -1.50660707
 C            3.27999367       -0.15480072       -0.50079144
 C            3.21587677       -1.39260484       -1.14271227
 C            2.66303411        2.21988640       -0.65197455
 C            3.20456932        1.01665633       -1.25919699
 C            1.84430763        2.89430003       -1.64388345
 C            0.32796222        3.54551127        0.16347599
 C            0.73559676        3.61402448       -1.22922908
 C           -1.64241241        2.43051618        1.07390715
 C           -1.11249973        3.38498248        0.20789591
 C           -3.18798303        0.64008376        1.48478345
 C           -3.47176380       -0.69095116        0.97553459
 C           -2.65021686        1.57744883        0.61312237
 C           -2.39067648       -2.12388279       -0.61033953
 C           -3.13130862       -0.96918120       -0.34109810
 C           -0.75579829       -2.91353760       -2.23642892
 C           -2.09473211       -2.44362131       -1.92641914
 C           -0.36035092       -2.32368764       -3.51148776
 C            1.96011584       -2.48005024       -2.80019694
 C            2.96242600       -1.45250714       -2.57091097
 C            0.95826787       -1.93762715       -3.69382262
 C            2.73488403        0.97327450       -2.63960880
 C            1.73370688        2.01178569       -2.79573431
 C            2.53885645       -0.24930167       -3.25859267
 C            1.25956009       -0.52424552       -3.89220539
 C            0.47624714        1.69658396       -3.31217090
 C            0.23070352        0.42025017       -3.83203311
 C           -0.46404924        3.58204905       -2.04393992
 C           -1.60835859        3.46200972       -1.15317550
 C           -0.59266871        2.55868406       -3.06771132
 C           -2.81814411        1.37899665       -0.76087894
 C           -3.07883790        0.09247917       -1.24218506
 C           -2.43691953        2.38156704       -1.64642259
 C           -1.93571862        2.01923664       -2.96079812
 C           -2.50329997       -1.52752537       -2.97471154
 C           -1.40604015       -1.40675462       -3.91907082
 C           -1.08414720        0.00352237       -4.04139708
 C           -2.91130774       -0.18803903       -2.59539669
 C           -2.17749332        0.74301619       -3.43544788
