   70
C70 / DATE: 7/ 1/2024 / Origin: Program Fullerene / C70 from database
 C            1.23675757       -0.18654137        4.50410379
 C            2.49359741       -0.40973725        3.81494921
 C            2.40937396       -1.69342268        3.13941299
 C            0.39200141       -1.34735162        4.27610971
 C            1.07614444       -2.22621836        3.35139679
 C           -0.93089703       -0.87662877        3.91845244
 C            0.45975601        0.99970304        4.18767077
 C           -0.89688511        0.57870906        3.88458621
 C            1.03320322        2.01518016        3.43758256
 C            2.94742298        0.57139035        2.84668383
 C            2.32070125        1.80833915        2.78218833
 C            2.87027714       -1.51488076        1.77320570
 C            3.25404867       -0.12563890        1.60748703
 C            2.16840536       -2.13288545        0.74651807
 C            0.37624238       -2.70142944        2.25016680
 C            1.07616083       -2.93740678        1.06635981
 C           -1.64210394       -1.54587807        2.92783950
 C           -1.01718569       -2.57273507        2.21055732
 C           -2.72810295       -0.88335633        2.36271160
 C           -1.64031753        1.24473691        2.90857855
 C           -2.72654291        0.57043466        2.35149119
 C            0.19502128        2.78176133        2.53384351
 C           -1.10409424        2.36500813        2.25788230
 C            2.28030231        2.50373200        1.50987272
 C            1.03539880        3.25060780        1.44416087
 C            2.99579890        0.49756758        0.38889877
 C            2.73762463        1.87138338        0.35957099
 C            2.27590932       -1.62048930       -0.54607777
 C            2.67961428       -0.28895956       -0.72413544
 C            1.71238075       -2.33761201       -1.60654433
 C            0.45552665       -3.65094032        0.05285081
 C            0.75176102       -3.31047773       -1.32715955
 C           -1.71842788       -3.20968162        1.18923590
 C           -0.97002812       -3.89898897        0.15364023
 C           -3.28671961       -1.33946187        1.10052147
 C           -2.81469323       -2.51162465        0.53825333
 C           -3.29105830        1.00343199        1.08572141
 C           -3.46748160       -0.17340086        0.25291412
 C           -1.73059511        2.88623911        1.12825236
 C           -2.82940598        2.16974385        0.50500532
 C            0.46714672        3.49664527        0.19587551
 C           -0.91968922        3.47301002        0.06883317
 C            2.43726119        2.47312459       -0.85425125
 C            1.25934278        3.32655048       -0.93742174
 C            2.60906562        0.30643627       -1.98363370
 C            2.50128495        1.69036212       -2.07185468
 C            1.70771666       -1.78170955       -2.88207897
 C            2.27744875       -0.46608902       -3.08885746
 C            0.47245444       -1.84014972       -3.64426569
 C           -0.50709736       -3.26783306       -2.05632642
 C           -1.57362843       -3.56830113       -1.12678596
 C           -2.57117750       -2.55070990       -0.89257861
 C           -0.67969106       -2.24547120       -2.98045684
 C           -2.96726851       -0.17216793       -1.04926631
 C           -2.48031571       -1.36045374       -1.60893586
 C           -1.72146232       -1.32127221       -2.78381466
 C           -2.63055408        2.21266367       -0.93343356
 C           -1.52982494        3.12147721       -1.20558218
 C           -2.74789519        1.04979243       -1.69241767
 C            0.64082004        3.10296168       -2.23629853
 C            1.56175560        2.28170488       -3.01135494
 C           -0.73485088        2.89010366       -2.32299742
 C            1.56705094        0.14988330       -4.20090001
 C            0.43401536       -0.69917511       -4.53193409
 C            1.08027108        1.51076725       -4.05886684
 C           -1.81225519       -0.18789472       -3.58831019
 C           -2.23190746        1.06132283       -2.98335027
 C           -1.24427274        2.07336999       -3.33059508
 C           -0.75541952        0.12025393       -4.53610025
 C           -0.34721537        1.49857692       -4.31679869
