   70
C70 / DATE: 7/ 1/2024 / Origin: Program Fullerene / C70 from database
 C            1.53869484        0.00123134        5.06190271
 C            0.75155066       -1.21568141        5.00194336
 C            1.64871065       -2.26028394        4.56519664
 C            2.70459942       -0.19703464        4.21569581
 C            2.81331523       -1.61260900        3.96638609
 C            2.58093052        0.69936975        3.08172894
 C            0.74769476        1.05473635        4.46217246
 C            1.53640785        1.65294446        3.40163869
 C           -0.44311610       -0.93681914        4.21257182
 C           -0.54331827        0.50352971        4.09063207
 C           -0.75600683       -1.73418321        3.10786066
 C            1.15161993       -3.21704677        3.60365551
 C           -0.12685709       -2.96608395        2.95384446
 C            2.90203169       -2.07028510        2.59412902
 C            2.14209025       -3.29510341        2.54667898
 C            2.64552898        0.20876608        1.77538423
 C            2.76184755       -1.16948001        1.53119633
 C            2.19060453        1.04102713        0.75128807
 C            0.83382526        2.20821994        2.34422739
 C            1.39718374        2.14540946        1.07182228
 C           -1.13315511        1.03143931        2.95461104
 C           -0.55334098        2.17658824        2.42428627
 C           -1.43789838       -1.16864872        2.01957663
 C           -1.80369606        0.18070788        2.07375710
 C           -1.57247182       -1.88233074        0.81479502
 C            0.00124961       -3.51435370        1.62584675
 C            1.42557843       -3.57129971        1.33095373
 C           -0.82767443       -3.05472132        0.61040192
 C            2.41624395       -1.67186929        0.26523443
 C            1.83898878       -2.95005557        0.16469812
 C            2.22032603        0.58872089       -0.56219971
 C            2.30746931       -0.78465409       -0.81510976
 C            1.86589016        1.46417573       -1.58787078
 C            0.74322533        2.83156037        0.04807899
 C            1.09789549        2.59579888       -1.28109287
 C           -1.25883502        2.84193695        1.44386930
 C           -0.50917581        3.38012273        0.32891360
 C           -2.45901628        0.76631072        0.98960323
 C           -2.39252651        2.15554815        0.86214027
 C           -2.21531981       -1.27706532       -0.28065311
 C           -2.78439717       -0.00430552       -0.12666168
 C           -2.09593317       -1.84929457       -1.56106362
 C           -0.38675774       -3.33194373       -0.67576651
 C            1.03836045       -3.21938348       -0.92985637
 C           -1.07602820       -2.75033873       -1.79644375
 C            1.94748498       -1.27909175       -2.07493848
 C            1.20706715       -2.44695815       -2.13526056
 C           -0.08136923       -2.42197356       -2.80452637
 C            1.98106515        1.01448517       -2.89926335
 C            1.83785653       -0.40218596       -3.14671235
 C            1.30485798        1.70682535       -3.97985360
 C            0.39508275        3.27430458       -2.28073051
 C            0.50093677        2.86264133       -3.66479079
 C           -1.46464276        3.58496657       -0.74437326
 C           -2.63912911        2.78191085       -0.42509145
 C           -0.99218333        3.62865293       -2.04540028
 C           -3.43387439        0.61137720       -1.19943516
 C           -3.25351394        2.03699300       -1.41687909
 C           -2.58021370       -1.17971751       -2.67528313
 C           -3.42293860       -0.02533043       -2.49618792
 C           -0.34840109       -1.38484320       -3.69244745
 C            0.71328759       -0.55867851       -4.06116348
 C            0.45343688        0.73919870       -4.65628637
 C           -1.66220790       -0.91260339       -3.77571321
 C           -0.84870844        2.62039105       -4.15499406
 C           -1.77881616        3.03976745       -3.11664846
 C           -2.87277405        2.23663514       -2.80713641
 C           -3.04281575        0.96724904       -3.49087681
 C           -0.90057707        1.25758243       -4.65922614
 C           -1.94524890        0.42513267       -4.27678507
