   70
C70 / DATE: 7/ 1/2024 / Origin: Program Fullerene / C70 from database
 C            1.32162335        0.07355761        4.80602013
 C            2.50705514       -0.15288001        4.00740594
 C            2.48904723       -1.53887265        3.56504824
 C            0.48979520       -1.11637083        4.71677125
 C            1.21505615       -2.11633271        3.94881588
 C           -0.83156909       -0.70442953        4.26626291
 C            0.48970782        1.21600076        4.49613830
 C           -0.87327577        0.74025965        4.30942730
 C            0.81420556        2.04191286        3.34550570
 C            2.74931089        0.67734348        2.83676560
 C            1.86529141        1.69818682        2.49079220
 C            2.87893356       -1.55727399        2.16531977
 C            3.23649675       -0.19911850        1.79397772
 C            2.16116619       -2.33012633        1.25168058
 C            0.51759047       -2.87310480        3.01771560
 C            1.09451593       -3.11021960        1.70088857
 C           -1.40808009       -1.36055620        3.18454334
 C           -0.89265983       -2.59948814        2.80999753
 C           -2.21652813       -0.65190072        2.28661952
 C           -1.43092748        1.44943989        3.17403784
 C           -0.45173168        2.43647411        2.76114396
 C           -2.10591711        0.74011646        2.18272905
 C           -0.46231353        2.83263707        1.43731186
 C            1.80588882        2.12104585        1.15859495
 C            0.75634497        2.95519102        0.77701664
 C            3.06047872        0.17289810        0.47310337
 C            2.52255955        1.42585193        0.17346890
 C            2.23704078       -1.99605103       -0.10352884
 C            2.93348115       -0.83882027       -0.46373787
 C            1.32411378       -2.55893241       -1.00192169
 C           -0.00950268       -3.39572300        0.79576810
 C           -1.24760329       -3.16312749        1.52254704
 C            0.09040907       -2.99770426       -0.53328180
 C           -2.86781593       -1.35309560        1.27812489
 C           -2.32745990       -2.63238362        0.84229041
 C           -3.31287278       -0.64419988        0.09092624
 C           -2.28752238        1.36234194        0.94054180
 C           -1.59393353        2.54742767        0.68194452
 C           -2.92386590        0.67837751       -0.10186472
 C           -1.71586716        3.16644638       -0.55271885
 C            0.75242768        3.49197108       -0.50217729
 C           -0.53266463        3.79953355       -1.10743488
 C            2.39198142        1.79373705       -1.17427128
 C            1.58490467        2.87539472       -1.51849707
 C            3.04469430       -0.49182039       -1.79830536
 C            2.74227801        0.87929068       -2.17072887
 C            1.47922022       -2.33359390       -2.36280620
 C            2.46933799       -1.36913634       -2.79500101
 C            0.29230273       -2.14801649       -3.17834150
 C           -1.06869404       -2.71832200       -1.26773792
 C           -2.29135967       -2.60772543       -0.60594972
 C           -3.22262667       -1.57834839       -1.01735803
 C           -0.96407122       -2.23955584       -2.57819487
 C           -3.11405609       -1.07456196       -2.29909226
 C           -2.04920623       -1.57434827       -3.15263667
 C           -2.92211791        1.20560419       -1.39873631
 C           -2.39530380        2.47436813       -1.62920742
 C           -3.16118175        0.36369362       -2.48554058
 C           -0.46076552        3.46484060       -2.51644653
 C            0.82031442        2.82960413       -2.75880896
 C           -1.66817751        2.74661984       -2.86494513
 C            1.97736492        0.84316758       -3.40925839
 C            1.87648887       -0.54251074       -3.82983530
 C            0.56930155       -1.08237604       -4.13643642
 C            0.87863101        1.68573307       -3.55090081
 C           -1.80988315       -0.56070041       -4.16481158
 C           -2.51318854        0.64413533       -3.75476135
 C           -1.58642578        1.75583926       -3.83043591
 C           -0.44245587       -0.19952385       -4.47954098
 C           -0.27773566        1.22220967       -4.19399330
