   70
C70 / DATE: 7/ 1/2024 / Origin: Program Fullerene / C70 from database
 C            1.33604249       -0.07825125        4.22207071
 C            2.53899768       -0.29718798        3.45607428
 C            2.48142622       -1.64932559        2.92779028
 C            0.49448991       -1.25990894        4.08021124
 C            1.13031202       -2.13422750        3.12254658
 C           -0.85186719       -0.79895908        3.81231096
 C            0.50848217        1.06630701        3.90415045
 C           -0.85817339        0.62516577        4.08965978
 C            0.80579498        1.87100992        2.80131030
 C            2.82391595        0.58516900        2.34397197
 C            1.94285965        1.61302069        2.01332172
 C            3.00331482       -1.61232343        1.57282342
 C            3.35722877       -0.23633048        1.27446174
 C            2.35663416       -2.34421313        0.58403220
 C            0.42412364       -2.54906261        2.00220082
 C            1.14908896       -2.97842623        0.89659297
 C           -1.52975663       -1.26347507        2.68621523
 C           -0.92901529       -2.21571790        1.84468497
 C           -2.64881625       -0.54973033        2.24842218
 C           -1.86660406        1.39174110        3.53872700
 C           -2.89483753        0.72456967        2.76081852
 C           -0.19422131        2.72725878        2.32436659
 C           -1.49970911        2.58721749        2.79923669
 C            0.03018836        3.48328631        1.17653559
 C            2.05189018        2.18087503        0.74370287
 C            1.23698410        3.25478636        0.40672306
 C            3.21296437        0.20748320       -0.03374120
 C            2.76965360        1.51357411       -0.25591182
 C            2.63086884       -2.02458385       -0.74493001
 C            3.09037057       -0.74049985       -1.05328951
 C            2.12103057       -2.84038062       -1.75121092
 C            0.47593418       -3.68436468       -0.08649183
 C            1.04843447       -3.75526761       -1.41763359
 C           -1.62019049       -2.68859520        0.71941470
 C           -0.95331356       -3.47526269       -0.22026756
 C           -3.31581563       -0.95153614        1.09723708
 C           -2.79186577       -2.05669851        0.31922182
 C           -3.81564271        0.05134042        0.16453363
 C           -3.48659191        1.73114131        1.89666059
 C           -2.61242019        2.89218303        1.91615720
 C           -3.75042168        1.39071704        0.51208361
 C           -1.05678907        3.70009694        0.22712204
 C           -2.33115063        3.26443791        0.54377199
 C           -2.97352641        2.29121076       -0.32581972
 C            0.90978061        3.49700603       -0.98841040
 C           -0.53304585        3.41584953       -1.09283139
 C            2.75443614        2.01085114       -1.55709207
 C            1.67146027        2.88592451       -1.96679416
 C            3.11805988       -0.31687935       -2.37904642
 C            3.00594429        1.10088640       -2.66100824
 C            1.82183348       -2.27475399       -3.05523944
 C            2.32526884       -1.02127302       -3.37157027
 C           -0.02323406       -3.55528161       -2.37868815
 C           -1.23856257       -3.27723900       -1.63489829
 C            0.43601832       -2.59632674       -3.36437777
 C           -2.97749340       -1.73567125       -1.08851888
 C           -3.39156816       -0.34605691       -1.16304549
 C           -2.06292088       -2.22156521       -2.01702633
 C           -2.28237360        1.77860063       -1.42723372
 C           -1.10091491        2.39856256       -1.85939321
 C           -2.65624510        0.53548222       -1.94808391
 C            0.98527229        2.21627405       -3.05696282
 C            1.93188920        1.27509268       -3.62804661
 C            1.46559086       -0.04195161       -4.01915848
 C           -0.34861631        1.83861087       -2.89590869
 C           -0.42857163       -1.59068087       -3.77575049
 C           -1.70604880       -1.41042357       -3.09831654
 C           -1.98415100        0.01892297       -3.04660399
 C            0.09781777       -0.27316228       -4.09511731
 C           -0.82992753        0.72093867       -3.57074553
