   70
C70 / DATE: 7/ 1/2024 / Origin: Program Fullerene / C70 from database
 C            1.50878953       -0.03287658        4.96927246
 C            0.65167295       -1.18448944        4.72653723
 C            1.39442359       -2.11364562        3.91278996
 C            2.63062907       -0.12693626        4.05580286
 C            2.66954407       -1.48858653        3.57996385
 C            2.50807701        0.93893128        3.07515004
 C            0.75124218        1.15043324        4.61188509
 C            1.38143076        1.77270248        3.45974859
 C           -0.61175993       -0.68576558        4.22435225
 C           -0.63044980        0.74508438        4.48019916
 C           -1.13464027       -1.16071942        3.01410338
 C            0.80664587       -2.57602557        2.66809038
 C           -0.39290956       -2.03649340        2.20748550
 C            2.88167882       -1.70406425        2.16671897
 C            1.90299448       -2.67985401        1.73701985
 C            2.69646449        0.65683405        1.72446063
 C            3.11014816       -0.61873416        1.31999721
 C            2.10817355        1.49948614        0.78479137
 C            0.55593238        2.29773760        2.46503355
 C            0.96401931        2.23005565        1.13091692
 C           -1.43906422        1.51853210        3.67275479
 C           -0.80343665        2.44581092        2.74437205
 C           -2.19184758       -0.45501448        2.44467115
 C           -2.44877236        0.84100712        2.89507073
 C           -2.68168871       -0.82989035        1.19461736
 C           -0.67877749       -2.12879462        0.83784067
 C           -1.85810174       -1.57510865        0.33735462
 C            1.62464453       -2.69599247        0.38593693
 C            0.29884438       -2.61126996       -0.04557396
 C            3.11097767       -0.90146617       -0.04630441
 C            2.58781093       -2.13800031       -0.43351980
 C            2.45171696        1.34816038       -0.55658183
 C            3.06428207        0.15890748       -0.95528315
 C            1.84912426        2.17645524       -1.49971220
 C            0.10918135        2.69400562        0.12795104
 C            0.59291886        2.81805064       -1.16423416
 C           -1.74440730        2.64810500        1.64917509
 C           -2.90814999        1.82630184        1.94289482
 C           -1.26833599        2.70061846        0.34091121
 C           -3.71189947       -0.05733699        0.66494444
 C           -3.66984305        1.37625142        0.88635985
 C           -4.11361027       -0.24924740       -0.70868734
 C           -2.11923031       -1.63174223       -1.04000411
 C           -3.31526290       -1.11744530       -1.54140520
 C            0.07539878       -2.57594490       -1.42980114
 C           -1.09235682       -1.97943563       -1.93145187
 C            2.49736004       -2.43658704       -1.77613575
 C            1.17666585       -2.77667762       -2.27356758
 C            3.21242212       -0.12994924       -2.31178146
 C            3.09907828       -1.51705836       -2.71626739
 C            1.78111497        1.76928064       -2.89071314
 C            2.51969481        0.67493206       -3.30719512
 C           -0.31889102        2.63395129       -2.27925198
 C            0.39762577        1.92457324       -3.33331757
 C           -2.14125439        2.40628547       -0.71608082
 C           -3.42864662        1.95282794       -0.41627114
 C           -4.10991735        1.06786728       -1.33463457
 C           -1.65156432        2.32627056       -2.02862081
 C           -3.30933405       -0.50450593       -2.84892121
 C           -3.57215768        0.91263226       -2.66196810
 C           -2.35146606        1.61717620       -3.00404070
 C           -1.16223406       -1.56105918       -3.27778381
 C           -0.24219376        0.90512752       -4.04915514
 C           -2.10305451       -0.60894788       -3.62704132
 C           -1.61715479        0.73605974       -3.89218213
 C            1.11494597       -2.33445984       -3.64709838
 C            2.32389498       -1.57945560       -3.93815367
 C            1.92943880       -0.22432762       -4.27732531
 C           -0.00637317       -1.52586482       -4.03923324
 C            0.48977861       -0.21668182       -4.43987447
