   70
C70 / DATE: 7/ 1/2024 / Origin: Program Fullerene / C70 from database
 C            1.41958958       -0.13411599        4.46420780
 C            2.65455651       -0.30894188        3.72351855
 C            2.58795424       -1.59444734        3.04893409
 C            0.56506557       -1.27882609        4.18351957
 C            1.24839069       -2.12013344        3.22481897
 C           -0.75306629       -0.77963517        3.84747455
 C            0.63076205        1.06586818        4.25038426
 C           -0.75411485        0.65086394        4.09802415
 C            1.13351573        2.09045255        3.45270245
 C            3.03668260        0.68673111        2.73842377
 C            2.34055352        1.88500305        2.66107471
 C            3.07940261       -1.41862018        1.69169743
 C            3.38190341       -0.01126970        1.51260333
 C            2.43251931       -2.08679710        0.65361309
 C            0.56823052       -2.54266146        2.09173814
 C            1.31292531       -2.85946067        0.96144118
 C           -1.39985874       -1.26606962        2.71366385
 C           -0.79704000       -2.27288517        1.94626109
 C           -2.46927453       -0.53829724        2.18922397
 C           -1.63322198        1.44849727        3.37975138
 C           -2.59903515        0.81151695        2.49964458
 C            0.21983043        2.90250065        2.66454071
 C           -1.14129851        2.63910674        2.70127118
 C            2.12988799        2.49780326        1.36152368
 C            0.85212086        3.18376885        1.38568743
 C            3.09497525        0.55996360        0.27936367
 C            2.49738998        1.82412821        0.20211119
 C            2.57606481       -1.59769955       -0.64900001
 C            3.02685148       -0.28085542       -0.82713036
 C            1.98335645       -2.30208843       -1.70707730
 C            0.68545203       -3.56202485       -0.05127448
 C            1.12159167       -3.35692971       -1.41908837
 C           -1.46769364       -2.79803402        0.83669559
 C           -0.76582056       -3.61264727       -0.05159672
 C           -3.14882122       -1.02448103        1.08288654
 C           -2.67331797       -2.22900962        0.42984173
 C           -3.58468195       -0.09332358        0.04994577
 C           -2.91894681        1.75238104        1.43964573
 C           -1.92571558        2.81327311        1.49242654
 C           -3.32820478        1.27091096        0.19610510
 C            0.08736475        3.20512143        0.22151189
 C           -1.31258796        3.20828011        0.30940266
 C            1.93566704        2.23363327       -1.00858085
 C            0.71515780        2.92090991       -0.99789999
 C            2.98586437        0.31273804       -2.07997941
 C            2.38614696        1.62902370       -2.18189939
 C            1.95170923       -1.75345849       -2.98775731
 C            2.56621655       -0.46549415       -3.22229500
 C            0.71035869       -1.78966520       -3.75007263
 C           -0.02633102       -3.58215074       -2.28051875
 C           -1.20072662       -3.70413837       -1.43487863
 C           -0.31794696       -2.60854201       -3.31577619
 C           -2.98458208       -2.10930990       -0.98902119
 C           -3.36044016       -0.73101403       -1.23797674
 C           -2.19744566       -2.76889946       -1.91697598
 C           -1.60525419       -2.00672648       -3.00546057
 C           -2.73925064       -0.00887591       -2.25139303
 C           -1.74466811       -0.61654942       -3.03401532
 C           -3.05624418        2.03637196       -0.93947028
 C           -2.07103030        3.10404925       -0.84997350
 C           -2.86406596        1.37422538       -2.22089791
 C            0.02065634        3.11672692       -2.18762600
 C           -1.42109853        3.22070240       -2.13780731
 C           -1.96766225        2.18995494       -3.00801134
 C            1.56653768        1.65676986       -3.38346016
 C            1.63180528        0.33953896       -3.99167192
 C            0.40392426       -0.42425455       -4.12848748
 C           -0.79485673        0.15737934       -3.72030183
 C            0.34171844        2.30218989       -3.34296269
 C           -0.85839606        1.54794846       -3.67534169
