   70
C70 / DATE: 7/ 1/2024 / Origin: Program Fullerene / C70 from database
 C            1.19546218       -0.00570874        4.31809596
 C            2.51063576       -0.37270162        3.84340469
 C            2.45197097       -1.75528283        3.39321276
 C            0.36513625       -1.19545443        4.24567553
 C            1.06030666       -2.16905814        3.43549016
 C           -0.94260857       -0.77634449        3.81630578
 C            0.48169775        1.06239197        3.63667993
 C           -0.90485249        0.65629854        3.56902849
 C            1.05648458        1.67474855        2.52896860
 C            3.09080799        0.40529987        2.77244962
 C            2.43190360        1.53584129        2.29803088
 C            3.17072865       -1.84697988        2.13416131
 C            3.64866304       -0.51608641        1.79797209
 C            2.64688261       -2.64031788        1.13083392
 C            0.45675360       -2.64073633        2.26867165
 C            1.27656632       -3.12544616        1.24930112
 C           -1.63044126       -1.55500321        2.90199271
 C           -0.89010246       -2.33897151        1.99576699
 C           -2.83681007       -1.01682119        2.48675989
 C           -1.72190410        1.15089376        2.55642982
 C           -2.88228573        0.42552730        2.29695191
 C            0.22553076        2.19643065        1.52856342
 C           -1.15057034        1.89765681        1.51709172
 C            0.78459836        2.98813690        0.52030301
 C            2.98192195        2.12984481        1.17318170
 C            2.16575977        3.00530763        0.36090249
 C            3.70341792       -0.09386440        0.46886111
 C            3.74393763        1.28262513        0.26821813
 C            2.84716018       -2.24246157       -0.24810168
 C            3.20048190       -0.92533863       -0.54748542
 C            0.74889846       -3.26004498       -0.09445890
 C            1.80987497       -2.89799238       -1.01928713
 C           -1.41315976       -2.61900528        0.71955230
 C           -0.55218751       -2.84973873       -0.35075282
 C           -3.53790462       -1.63561098        1.39051247
 C           -2.76173709       -2.41241814        0.45444410
 C           -3.63972876        0.68633657        1.09204257
 C           -4.19991101       -0.57905454        0.65053517
 C           -1.93081684        2.23367251        0.40107220
 C           -3.12379356        1.55268026        0.13797217
 C           -0.00692538        3.42711996       -0.53617031
 C           -1.41571472        3.08931913       -0.56424966
 C            0.49866873        3.32684235       -1.90106452
 C            2.71938532        2.97051998       -0.98140867
 C            3.59630323        1.81456974       -1.06496428
 C            1.80468298        2.91810908       -2.10430072
 C            2.89520591       -0.40762064       -1.81867381
 C            3.08260554        0.94377888       -2.09437684
 C            2.04271601        1.66914160       -2.81113566
 C            1.46792311       -2.37635876       -2.25142844
 C            2.08441243       -1.13482564       -2.68833885
 C           -0.91673320       -2.46011578       -1.64485785
 C            0.06635974       -2.31812098       -2.62339861
 C           -3.16152679       -2.01021941       -0.88393417
 C           -4.11326904       -0.90966529       -0.75620789
 C           -2.20456465       -1.97861174       -1.89805703
 C           -3.58265984        1.43611541       -1.17689983
 C           -4.04159358        0.13953395       -1.65963150
 C           -1.78494946        2.89831229       -1.95680757
 C           -0.54880598        2.72940210       -2.70166744
 C           -2.86544888        2.08703248       -2.25997935
 C            0.96872207        0.95542720       -3.34290833
 C            1.10991414       -0.42280857       -3.50295477
 C           -0.06652946       -1.26829096       -3.61477809
 C           -0.30735036        1.53191630       -3.37707692
 C           -2.43133540       -1.17954206       -3.02096831
 C           -3.39718992       -0.10133212       -2.93344895
 C           -2.72888943        1.12440986       -3.33873510
 C           -1.30437359       -0.67861033       -3.78985621
 C           -1.39580725        0.77132185       -3.80107075
