   70
C70 / DATE: 7/ 1/2024 / Origin: Program Fullerene / C70 from database
 C            1.35063614        0.05688433        5.01607689
 C            0.57008804       -1.15898229        4.84701379
 C            1.40263258       -2.11967409        4.16550157
 C            2.53207382       -0.06407102        4.18201894
 C            2.65970545       -1.45937548        3.83400804
 C            2.42792409        0.90827286        3.10472603
 C            0.56126674        1.15761394        4.49855108
 C            1.27558519        1.74682145        3.38537691
 C           -0.69163372       -0.78948264        4.23979215
 C           -0.77550130        0.66286121        4.24150982
 C           -1.16973304       -1.47960621        3.12320417
 C            0.90454008       -2.73267732        2.94649527
 C           -0.31351224       -2.32714360        2.39878264
 C            2.95467777       -1.78674123        2.45783855
 C            2.04745676       -2.84864593        2.06578065
 C            2.66580575        0.50846332        1.78623040
 C            3.19089093       -0.76820960        1.53749202
 C            2.06231970        1.22923136        0.74394444
 C            0.51964258        2.20220617        2.31766965
 C            1.07247462        2.17021988        1.03890231
 C           -1.50451224        1.26324757        3.22257124
 C           -0.87003882        2.23814322        2.44705800
 C           -2.27747432       -0.92987697        2.48735157
 C           -2.50330605        0.49778929        2.62926039
 C           -2.56895942       -1.28020793        1.11280050
 C           -0.51896499       -2.53961339        1.02793339
 C           -1.65215819       -2.01979407        0.39224128
 C            1.82373745       -3.01563088        0.70846810
 C            0.50526392       -3.11768055        0.26244432
 C            3.34972563       -1.17801985        0.22152037
 C            2.76388523       -2.45452654       -0.15021274
 C            2.32221082        0.89002672       -0.58628584
 C            3.05991908       -0.25414140       -0.85572633
 C            1.57396362        1.47191815       -1.61419587
 C            0.38800218        2.80742099        0.00631062
 C            0.74182969        2.55820194       -1.31947508
 C           -1.59226625        2.86521485        1.44170091
 C           -0.86610706        3.34852193        0.28200127
 C           -3.13946843        0.97416962        1.41481230
 C           -3.18900297       -0.13378509        0.47334276
 C           -2.80612860        2.23293807        0.94461511
 C           -2.94142264        0.10761988       -0.87859173
 C           -1.71144741       -1.98009901       -0.99632432
 C           -2.27089258       -0.86135898       -1.63879298
 C            0.28789669       -3.36429037       -1.09254199
 C           -0.93937324       -2.88956433       -1.70149897
 C            2.48461974       -2.41631852       -1.56966901
 C            2.72262177       -1.04988834       -2.02148389
 C            1.36681564       -3.09298926       -2.03238995
 C            1.51563044        0.84215103       -2.87025558
 C            1.89179874       -0.49644043       -2.98762140
 C            0.76179743        1.40068634       -3.89980069
 C            0.01637787        3.18363412       -2.33360695
 C            0.09846694        2.66884922       -3.68478548
 C           -1.83639974        3.46302632       -0.78574115
 C           -2.86575266        2.48134749       -0.48399345
 C           -3.05462703        1.41384520       -1.36207532
 C           -1.37401299        3.53737246       -2.08694942
 C           -1.25869163        2.54323572       -4.19178626
 C           -2.86677588        1.65400500       -2.71754854
 C           -2.15694894        2.86424612       -3.10232158
 C           -2.08999073       -0.66153053       -3.01680053
 C           -0.15533505        0.54058671       -4.63470188
 C           -2.39987354        0.57805335       -3.57201038
 C           -1.46457925        1.14950773       -4.52887152
 C           -0.67441379       -2.66501338       -3.10302831
 C            0.76908346       -2.65491856       -3.27623344
 C            1.12341778       -1.34419155       -3.78481973
 C           -1.18914524       -1.46146026       -3.71817186
 C           -0.07633438       -0.82238393       -4.40703525
