   70
C70 / DATE: 7/ 1/2024 / Origin: Program Fullerene / C70 from database
 C            1.44977216       -0.00368848        4.53806705
 C            0.67342297       -1.17168344        4.16614298
 C            1.44890727       -1.94974093        3.22716947
 C            2.65462665        0.00093352        3.72739237
 C            2.67883313       -1.21743721        2.95267265
 C            2.70542496        1.25412325        3.01351897
 C            0.67285316        1.17199114        4.18360289
 C            1.47852107        1.98600742        3.30364447
 C           -0.63110018       -0.71996787        3.74709574
 C           -0.61870082        0.73139667        3.70394137
 C           -1.25850497       -1.37588985        2.70340603
 C            0.79456318       -2.56940000        2.16425291
 C           -0.58113988       -2.36731927        1.97850716
 C            1.57036870       -2.96164729        1.07911410
 C            3.14045186       -1.17423910        1.64156564
 C            2.81416962       -2.25397994        0.82644064
 C            3.18535880        1.26835935        1.70764244
 C            3.47680868        0.05801674        1.05494569
 C            2.90110364        2.40158003        0.95081762
 C            0.85737941        2.66390763        2.26041382
 C            1.67832877        3.13140780        1.23816687
 C           -1.17342497        1.35905830        2.58835658
 C           -0.50355710        2.44068692        2.00042298
 C           -2.29524979       -0.70435146        2.07596434
 C           -2.14965826        0.66830303        1.85648680
 C           -3.12730035       -1.45164493        1.26319785
 C           -1.20183023       -2.87715867        0.83167358
 C           -2.57296163       -2.66448664        0.69079590
 C            0.93814552       -3.22321118       -0.20041202
 C           -0.43528366       -3.08870907       -0.31899264
 C            2.99964718       -2.16847880       -0.60855694
 C            1.78749902       -2.67216278       -1.24332780
 C            3.89209205        0.08594436       -0.27931581
 C            3.64227003       -1.06244277       -1.13756031
 C            3.08575846        2.38638981       -0.48715105
 C            3.68536787        1.28631812       -1.07562770
 C            1.10270654        3.55688339       -0.02420556
 C            1.89108662        2.96253908       -1.09190153
 C           -1.10229235        3.09420701        0.92842116
 C           -0.27304178        3.60726035       -0.15194948
 C           -2.73575851        1.26736929        0.73468357
 C           -2.29519199        2.52345567        0.32530332
 C           -3.89120512       -0.78641714        0.23129532
 C           -3.54828590        0.51642814       -0.12219291
 C           -3.18929546       -2.85334731       -0.60951342
 C           -4.15281629       -1.78115824       -0.79618704
 C           -0.95840608       -2.75854241       -1.56850346
 C           -2.32811700       -2.87166861       -1.77207779
 C            1.20307393       -1.97403352       -2.30162030
 C           -0.18674569       -1.99807251       -2.45284266
 C            3.22342860       -0.57199184       -2.43525655
 C            3.24205345        0.87994422       -2.39479580
 C            1.93309383       -0.98452485       -2.95953025
 C            1.25391263        2.30493361       -2.14700826
 C            1.95767893        1.35515725       -2.88152287
 C            1.24259942        0.21074414       -3.41053378
 C           -0.87127402        3.17033933       -1.39722253
 C           -2.24798295        2.83140750       -1.09399256
 C           -0.13881372        2.35656766       -2.26163174
 C           -3.78381757        0.97277156       -1.42223799
 C           -2.93430834        2.01223093       -1.97078113
 C           -4.10217463       -1.38736875       -2.18820617
 C           -2.95916149       -2.05686699       -2.79284971
 C           -4.00280187        0.02332569       -2.50014006
 C           -0.79551130       -0.99964110       -3.21862376
 C           -0.14141774        0.21729739       -3.37565341
 C           -0.80663436        1.39323811       -3.02533626
 C           -2.20066367        1.41092108       -3.07233962
 C           -2.16068462       -1.05203388       -3.46603223
 C           -2.90619381        0.19186136       -3.43948924
