   70
C70 / DATE: 7/ 1/2024 / Origin: Program Fullerene / C70 from database
 C            1.23375689       -0.24211475        4.35983919
 C            2.49729146       -0.62369110        3.77279168
 C            2.36730357       -1.98216818        3.26703355
 C            0.38686603       -1.42255373        4.38578282
 C            1.05177065       -2.47107724        3.63518494
 C           -0.94594121       -1.01420623        3.98471602
 C            0.47946345        0.83548056        3.74089636
 C           -0.90248020        0.40390232        3.65631730
 C            1.03027652        1.54417494        2.67589447
 C            3.01882094        0.18769560        2.69522220
 C            2.38422676        1.37791120        2.35268711
 C            2.74668669       -1.96770806        1.86211298
 C            3.40921684       -0.70302409        1.61736440
 C            1.85860440       -2.45879204        0.91087187
 C            0.31879826       -3.18063642        2.69554231
 C            0.81395750       -3.27788334        1.32773733
 C           -1.71372240       -1.85490149        3.18543636
 C           -1.12202682       -2.99054515        2.61847281
 C           -2.83986096       -1.30189316        2.58501890
 C           -1.70456077        0.87108983        2.61934681
 C           -2.83061690        0.12073746        2.27854302
 C            0.17003110        2.16067945        1.76223365
 C           -1.17219307        1.76390735        1.68241447
 C            0.69401407        3.03015367        0.80352434
 C            2.88239523        2.02280275        1.22862528
 C            2.05730361        2.98857087        0.53334228
 C            3.41734072       -0.18227515        0.33086673
 C            3.52577845        1.20136163        0.21618821
 C            1.80965701       -1.85539324       -0.34904108
 C            2.76393779       -0.88612584       -0.68192305
 C            0.75456807       -2.14068631       -1.23006134
 C           -0.33187682       -3.47357608        0.46145279
 C           -1.52468353       -3.44438879        1.29426665
 C           -0.36010333       -2.86487063       -0.78754473
 C           -3.47386007       -1.99104051        1.47773352
 C           -2.71253190       -2.98520475        0.74804634
 C           -3.44338083        0.29871216        0.97205430
 C           -3.92988370       -0.98633857        0.53120832
 C           -1.90964628        2.05918687        0.53571855
 C           -2.81684430        1.12672787        0.05383173
 C           -0.15936906        3.62117812       -0.12398330
 C           -1.48632077        3.06822499       -0.30853860
 C            0.35460012        3.98027254       -1.43555294
 C            2.52182138        3.03153606       -0.84626925
 C            3.32009908        1.83629962       -1.07308705
 C            1.65861370        3.48508311       -1.83471024
 C            2.80618400       -0.38086126       -1.97614523
 C            3.06704692        1.03687249       -2.17832890
 C            0.77692287       -1.64431051       -2.53658247
 C            1.80074143       -0.78985382       -2.93562351
 C           -0.37753577       -1.71421228       -3.30845776
 C           -1.59042560       -2.71238551       -1.43111797
 C           -2.74668248       -2.61966358       -0.65750293
 C           -3.56559326       -1.42553610       -0.79437715
 C           -1.62212697       -2.10408104       -2.67930736
 C           -2.82074987        0.81001777       -1.31401613
 C           -3.17022045       -0.48579078       -1.73842165
 C           -2.55545073       -1.00614381       -2.86758505
 C           -1.72180045        2.91870999       -1.73324170
 C           -0.61499216        3.55349928       -2.42998032
 C           -2.22872524        1.71170801       -2.21520405
 C            1.48654201        2.71109983       -3.05639434
 C            2.17850982        1.51428417       -3.22462073
 C            1.49958002        0.35767100       -3.78327113
 C            0.08867160        2.80463707       -3.45479430
 C           -0.69000929       -0.62585795       -4.22007381
 C           -1.99639757       -0.10711379       -3.84669035
 C           -1.82961089        1.28057989       -3.48240505
 C            0.22207759        0.49902089       -4.30699514
 C           -0.54325286        1.70311589       -4.01647098
