   70
C70 / DATE: 7/ 1/2024 / Origin: Program Fullerene / C70 from database
 C            1.32315936       -0.21349989        4.35851221
 C            2.53215211       -0.49835709        3.62358570
 C            2.46784996       -1.87780284        3.16801521
 C            0.47902098       -1.39920777        4.31233260
 C            1.16791155       -2.41099184        3.53282648
 C           -0.84799053       -0.97238211        3.89993251
 C            0.50863932        0.91333302        3.94674501
 C           -0.87157818        0.47555077        4.00879280
 C            0.90552337        1.72300046        2.88151614
 C            2.85587452        0.32533328        2.47729527
 C            2.07074973        1.42540127        2.15289334
 C            2.87475203       -1.90157303        1.77171814
 C            3.26892522       -0.55383806        1.40409189
 C            2.14605889       -2.65352305        0.85464304
 C            0.45283692       -3.12896623        2.58526187
 C            1.06943353       -3.42292154        1.30294896
 C           -1.45783304       -1.58646943        2.80497558
 C           -0.93687261       -2.78163058        2.31779825
 C           -2.36678809       -0.86187114        2.02926575
 C           -1.81512148        1.17633515        3.27973636
 C           -2.71349920        0.43172356        2.41922248
 C           -0.03648956        2.60621763        2.34071523
 C           -1.39552006        2.35165077        2.53156301
 C            0.33592365        3.43644631        1.28716639
 C            2.24575058        1.99206781        0.89392687
 C            1.60408098        3.19240702        0.63500410
 C            3.05984636       -0.14228145        0.09455705
 C            2.69779796        1.18475045       -0.16265867
 C            2.23580345       -2.32724619       -0.50058797
 C            2.81650675       -1.11010578       -0.87428854
 C            1.45638023       -3.03154895       -1.41609660
 C           -0.01303284       -3.74354750        0.38898116
 C           -1.23163103       -3.18541020        0.95347970
 C            0.20928563       -3.62221873       -0.97102199
 C           -2.73721228       -1.31828010        0.75907871
 C           -2.04306960       -2.37797288        0.16297682
 C           -3.62678950       -0.55834473        0.00241463
 C           -3.22153702        1.36725522        1.43222571
 C           -2.30578374        2.49622240        1.40450252
 C           -3.71085793        0.87107232        0.23888793
 C           -0.63376001        3.71300596        0.23782858
 C           -1.79916489        2.95860091        0.19252045
 C            1.49940349        3.67158895       -0.72445904
 C            0.09761957        3.96959027       -0.98216298
 C            2.60083795        1.61768582       -1.49380376
 C            1.96681031        2.82193415       -1.79568054
 C            2.83348563       -0.72422744       -2.20868775
 C            2.77329218        0.69308127       -2.52331675
 C            1.22855451       -2.48728126       -2.74212783
 C            2.01672240       -1.43681561       -3.17803023
 C           -0.84393971       -3.08079992       -1.81125077
 C           -1.95589753       -2.47872817       -1.23234518
 C           -0.21378322       -2.44328417       -2.95837865
 C           -3.67841808       -0.74897071       -1.43068971
 C           -2.73774268       -1.66376384       -2.03999556
 C           -3.32163712        1.52517612       -0.99629416
 C           -2.19334352        2.34216816       -1.00417006
 C           -3.50116307        0.55510940       -2.05406790
 C           -0.28692005        3.25858202       -2.18266315
 C            0.94371421        2.84633417       -2.82956592
 C           -1.35748227        2.36923525       -2.13516207
 C            1.98379442        0.84106564       -3.73423632
 C            1.43185295       -0.45913730       -4.07148703
 C            0.89887643        1.80549608       -3.74136447
 C           -0.81112605       -1.31598370       -3.53124702
 C           -2.11224557       -0.97725962       -3.15947897
 C           -2.46820375        0.42908093       -3.05726322
 C           -1.45558628        1.37732705       -3.12234282
 C           -0.01339944       -0.33431485       -4.12008444
 C           -0.34380720        1.06672808       -3.90292837
