   70
C70 / DATE: 7/ 1/2024 / Origin: Program Fullerene / C70 from database
 C            1.60761436        0.04922386        4.60105217
 C            0.81506168       -1.15780379        4.48534206
 C            1.31509036       -1.93090913        3.35802045
 C            2.64464609       -0.01352658        3.59157351
 C            2.47810602       -1.24194646        2.83608699
 C            2.61288929        1.23351926        2.85290676
 C            0.74259154        1.16894193        4.26789952
 C            1.35497140        1.88579562        3.17105388
 C           -0.57590160       -0.75499310        4.46307568
 C           -0.59683259        0.65193076        4.08758494
 C           -1.46440034       -1.60377370        3.82873790
 C            0.38538651       -2.48012946        2.47819044
 C           -0.91699443       -2.62877745        2.95201775
 C            0.62188695       -2.41932355        1.09309189
 C            2.66367287       -1.17063294        1.46525393
 C            1.83426670       -1.90356255        0.61350408
 C            2.98980128        1.19840072        1.51719416
 C            3.30309271       -0.04322049        0.96091822
 C            2.48671574        2.18678699        0.67333699
 C            0.56575614        2.31602815        2.11123576
 C            1.21822242        2.70954556        0.94519997
 C           -1.33083699        1.03754751        2.96602138
 C           -0.79006329        1.95478809        2.04736792
 C           -2.57333363       -1.01909470        3.10400156
 C           -2.45128203        0.28087321        2.61558316
 C           -1.96966393       -3.00712506        2.03877689
 C           -3.06073609       -2.06010990        2.21989512
 C           -0.37845788       -2.79072838        0.18082022
 C           -1.67076595       -3.05947981        0.62805103
 C           -0.21127946       -2.50479925       -1.17424333
 C            2.06679618       -1.83014467       -0.76489568
 C            1.06114134       -2.19993991       -1.65960566
 C            3.74355304       -0.08635777       -0.35107508
 C            3.15907596       -1.08664093       -1.22541888
 C            3.02080071        2.27809092       -0.60886573
 C            3.80841516        1.16023840       -1.09179597
 C            2.19398147        2.74382673       -1.70955993
 C            0.47282328        3.30215402       -0.06397445
 C            0.94069568        3.25850415       -1.43853481
 C           -1.55909961        2.37523049        0.95342769
 C           -0.96371076        3.10599688       -0.07120970
 C           -3.22668773        0.66820328        1.52884727
 C           -2.78899092        1.77867998        0.70511595
 C           -3.54348796       -1.68433169        0.90616051
 C           -2.78552146       -2.44735287       -0.07041676
 C           -3.79566077       -0.34594194        0.64959541
 C           -1.34800125       -2.24858198       -1.95304475
 C           -2.53563321       -1.89575102       -1.31860177
 C           -1.22527339       -1.97380712       -3.30658272
 C            1.24867032       -1.98306620       -3.02391303
 C            0.09237667       -1.88554339       -3.89419618
 C            3.15269252       -0.53650762       -2.57245508
 C            3.41426401        0.88767728       -2.46089915
 C            2.35620786        1.81855085       -2.81864338
 C            2.16636932       -0.94616963       -3.45057424
 C            0.17662637       -0.61033240       -4.59540723
 C            1.23814626        1.32696443       -3.49194384
 C            1.35041235        0.06998253       -4.09267320
 C           -0.17889840        2.87525863       -2.27737226
 C           -1.37639985        2.87603984       -1.44974182
 C           -0.02575586        1.89294628       -3.25220093
 C           -3.18494349        1.50083132       -0.66844277
 C           -3.67337256        0.13319187       -0.71337739
 C           -3.18357480       -0.71440184       -1.69925223
 C           -2.40209923        1.97190387       -1.72196607
 C           -2.01640581       -0.88611502       -3.84204898
 C           -1.10430854        0.04602161       -4.48051588
 C           -1.18116461        1.29718750       -3.75341537
 C           -2.84413072       -0.13382875       -2.91618477
 C           -2.36915143        1.24388855       -2.91389215
