   70
C70 / DATE: 7/ 1/2024 / Origin: Program Fullerene / C70 from database
 C            1.29043327        0.10172480        4.48220045
 C            2.51331507       -0.21770364        3.78090673
 C            2.49125052       -1.64094143        3.49731312
 C            0.45062834       -1.08784510        4.49130757
 C            1.13895374       -2.11678653        3.73377637
 C           -0.89008045       -0.69437807        4.09363694
 C            0.48658708        1.19475468        3.98506465
 C           -0.89315603        0.74663024        3.92406979
 C            0.95784904        1.99015680        2.94340220
 C            2.79976880        0.47250237        2.53520615
 C            1.93944973        1.47630813        2.08245677
 C            3.07042485       -1.83608518        2.18360081
 C            3.28002535       -0.52355079        1.59163962
 C            2.55097797       -2.83980018        1.38619449
 C            0.47021918       -2.78276312        2.70748141
 C            1.21604648       -3.35201171        1.67671724
 C           -1.57941997       -1.47851554        3.18628750
 C           -0.90127752       -2.58830916        2.53017509
 C           -2.43459880       -0.83636657        2.20420297
 C           -1.71692474        1.34878532        2.97611581
 C           -2.41800714        0.55004449        2.05520533
 C            0.06117769        2.92832262        2.44999886
 C           -1.35599688        2.64071710        2.60660483
 C            0.23670131        3.44149765        1.10843106
 C            1.86448011        1.72605476        0.70464451
 C            1.00799287        2.71597473        0.21314191
 C            3.02147784       -0.33414772        0.23785302
 C            2.57746084        0.91501045       -0.18265910
 C            2.64666694       -2.69925489       -0.05267844
 C            2.86590759       -1.43924960       -0.60785860
 C            0.57797084       -3.64138258        0.40186150
 C            1.61043431       -3.53968547       -0.61575763
 C           -1.49113267       -2.74310355        1.20766239
 C           -2.44435053       -1.66873060        1.01432181
 C           -0.69413777       -3.13468665        0.14154392
 C           -2.52607003       -1.05277617       -0.22519275
 C           -2.84978831        1.09281280        0.83632492
 C           -2.96973665        0.26466945       -0.28668590
 C           -2.05753970        3.29183353        1.52654955
 C           -1.05716207        3.92506239        0.67968833
 C           -2.88346874        2.47502749        0.67023720
 C           -1.45349161        3.69634626       -0.69270006
 C           -2.74782568        3.03028466       -0.66079863
 C            0.73625357        2.79082247       -1.15830230
 C           -0.50424129        3.26309886       -1.61529911
 C            2.53938191        1.18089646       -1.54314445
 C            1.61442586        2.17914665       -2.04639323
 C            2.54502745       -1.23674735       -1.95456626
 C            2.54451507        0.06120977       -2.46699223
 C            1.22697483       -3.30656261       -1.92195185
 C            1.91301248       -2.26236157       -2.66085918
 C           -1.01183741       -2.70845870       -1.15068700
 C           -1.88788566       -1.62379166       -1.33220625
 C           -0.18400154       -3.11977562       -2.19263251
 C           -2.07433255       -1.05594023       -2.60271077
 C           -3.26515678        0.81289395       -1.52972056
 C           -3.10213150        2.24365046       -1.74316482
 C           -2.80451006        0.12542307       -2.72396866
 C           -0.97357920        2.87201239       -2.86849960
 C           -2.34670723        2.41155780       -2.97025025
 C           -2.33340410        1.13622616       -3.65691308
 C            1.14101090        1.73487430       -3.34593050
 C            1.69234465        0.41205605       -3.59608119
 C           -0.16222160        2.02427986       -3.72480646
 C           -1.01948753        0.96801754       -4.25111026
 C            1.05648585       -1.94349137       -3.78883187
 C           -0.26888219       -2.46613854       -3.47907784
 C           -1.21177670       -1.38674670       -3.64552942
 C            0.90132335       -0.55993563       -4.19422966
 C           -0.52263508       -0.32266228       -4.35763441
