   70
C70 / DATE: 7/ 1/2024 / Origin: Program Fullerene / C70 from database
 C            1.50227155        0.07774757        5.06580528
 C            0.70665851       -1.07172763        4.67993382
 C            1.58846559       -1.96432695        3.96672637
 C            2.68039687        0.09392891        4.21195559
 C            2.79379252       -1.21590657        3.62451940
 C            2.56246272        1.23925533        3.32924477
 C            0.73365479        1.26323155        4.75019809
 C            1.58343824        2.11839366        3.94520495
 C           -0.48202201       -0.58807083        3.99746201
 C           -0.53917807        0.85058957        4.17635283
 C           -0.82734053       -1.11916513        2.75915738
 C            1.10850223       -2.56048803        2.73777129
 C           -0.15821288       -2.24447385        2.25888725
 C            2.95425562       -1.31875820        2.18897165
 C            2.20076706       -2.48970644        1.79717287
 C            2.53879935        1.05937050        1.93713943
 C            2.86352588       -0.18384515        1.37539600
 C            1.97227419        2.05987082        1.13853046
 C            0.94551916        3.02853893        3.13074273
 C            1.42219693        3.17366249        1.77215138
 C           -1.06555241        1.64300103        3.15812804
 C           -0.49429419        2.90384200        2.99734162
 C           -1.62358431       -0.35964698        1.89955630
 C           -1.69020506        1.03164944        2.05631644
 C           -2.12104353       -0.95789961        0.74152199
 C           -0.45293238       -2.65454011        0.96289811
 C           -1.63982538       -2.22390269        0.39304440
 C            1.88696676       -2.60795062        0.45862367
 C            0.60211871       -3.02224561        0.11808919
 C            2.65298358       -0.40366968        0.01032941
 C            2.51064561       -1.72844026       -0.40831055
 C            1.66979238        1.79508477       -0.20661094
 C            2.13561341        0.61860720       -0.79521191
 C            0.81290289        2.63663303       -0.93357693
 C            0.39027134        3.93018356        1.10490930
 C           -0.84584161        3.69527427        1.84633898
 C            0.10354249        3.63998322       -0.27810920
 C           -2.19258093        1.82175078        1.01090769
 C           -1.79584849        3.15596981        0.90335204
 C           -1.34146470        3.63325034       -0.38301737
 C           -2.81198220       -0.18126575       -0.19326746
 C           -2.72950497        1.21015475       -0.12647959
 C           -3.32944500       -0.77762002       -1.34391008
 C           -2.02541626       -2.81592447       -0.79852572
 C           -3.02142465       -2.16497928       -1.61756039
 C            0.34371654       -3.25323563       -1.23701263
 C           -0.98277342       -3.33131904       -1.66800792
 C            2.37863221       -1.99444108       -1.75684301
 C            1.35652528       -2.95037019       -2.15037376
 C            1.85605619        0.35194336       -2.14209684
 C            2.26213301       -0.87691028       -2.66339251
 C            0.30926621        2.20232827       -2.16000391
 C            0.91028333        1.13309484       -2.82102598
 C           -1.89043949        3.05336424       -1.50357879
 C           -2.81606224        1.95636538       -1.30605638
 C           -0.98144039        2.59300701       -2.53006810
 C           -3.26686422       -0.06062330       -2.60598555
 C           -2.90430588        1.27590654       -2.58782859
 C           -1.77036530        1.72880606       -3.38618228
 C           -2.60283607       -2.27359396       -3.00622156
 C           -1.34109889       -2.99517886       -3.04086257
 C           -2.68532356       -0.95034090       -3.59978717
 C            1.03369494       -2.67092629       -3.53657932
 C            1.66445750       -1.40236270       -3.87664849
 C           -0.35615851       -2.60386463       -3.93941137
 C            0.33117417        0.68504081       -4.01372923
 C           -1.10012314        0.83289865       -4.19975520
 C           -1.64779419       -0.49737150       -4.40949732
 C            0.69393798       -0.59817098       -4.57438628
 C           -0.52841084       -1.37946545       -4.70476583
