   70
C70 / DATE: 7/ 1/2024 / Origin: Program Fullerene / C70 from database
 C            1.60427348       -0.01581844        5.04214176
 C            0.75041291       -1.17692200        5.19261016
 C            1.28920023       -2.21916847        4.34410446
 C            2.58428159       -0.30471173        4.00353224
 C            2.34397117       -1.64369638        3.52315261
 C            2.54071113        0.77886362        3.04882007
 C            0.77579126        1.06683871        4.55324229
 C            1.50967491        1.70171145        3.48473377
 C           -0.56508022       -0.84049364        4.66753342
 C           -0.53408397        0.53753854        4.22833898
 C            0.16714039       -2.82514186        3.66070156
 C           -0.92167725       -1.85713251        3.70125524
 C            0.42990725       -3.43109533        2.44730384
 C            2.30518146       -1.88239994        2.14988602
 C            1.63396655       -3.02714917        1.73220702
 C            2.61266474        0.50019560        1.68205879
 C            2.48226562       -0.82598736        1.23698767
 C            2.27324989        1.54066913        0.80551095
 C            0.78734064        2.30761340        2.47858941
 C            1.48086233        2.57408982        1.31422362
 C           -1.06690856        0.86645303        2.98370297
 C           -0.57022930        1.99763936        2.34162233
 C           -1.51699281       -1.47271026        2.49899085
 C           -1.69685737       -0.11156411        2.20746368
 C           -0.62022185       -3.43849818        1.45549289
 C           -1.55166694       -2.40078772        1.45753102
 C            1.37709001       -3.23284135        0.32119773
 C            0.03569828       -3.77889920        0.21213761
 C            2.31527620       -1.05940527       -0.13434965
 C            1.77437788       -2.26882552       -0.59372717
 C            2.30205902        1.30972924       -0.57405398
 C            2.47288755       -0.00178433       -1.03008184
 C            1.89631725        2.32588382       -1.45482958
 C            0.86366706        3.44877924        0.44569435
 C            1.23045775        3.43409680       -0.94859920
 C           -1.21590132        2.45575766        1.19410399
 C           -0.58211234        3.48774878        0.50753261
 C           -2.19536043        0.24999458        0.95126192
 C           -2.02938976        1.56325670        0.48016258
 C           -2.16543392       -2.05653502        0.25568908
 C           -2.62630164       -0.75203034        0.08040211
 C           -0.66406786       -3.56273991       -0.95885538
 C           -1.92380903       -2.85182022       -0.86522044
 C            1.25643592       -2.34480485       -1.88857508
 C            0.04014756       -2.99369043       -2.09398706
 C            2.44196185       -0.28021237       -2.39234560
 C            1.69184179       -1.43533012       -2.84100454
 C            1.81950876        2.08399952       -2.82389593
 C            2.20285502        0.78992979       -3.33638364
 C            0.64379979        2.52454666       -3.56503704
 C            0.09314701        3.96954121       -1.67640579
 C           -1.06162459        3.88425935       -0.79359927
 C           -0.27163868        3.36534887       -2.94418173
 C           -2.53207065        1.92133329       -0.78336824
 C           -2.04526222        3.05234062       -1.44069685
 C           -1.66603184        2.96023054       -2.84274567
 C           -3.24558505       -0.40199551       -1.11500821
 C           -3.23813876        0.98573726       -1.53272775
 C           -2.20972086       -2.33182457       -2.18715374
 C           -0.96227134       -2.37011882       -2.94409004
 C           -3.03209664       -1.22560171       -2.29660373
 C            0.76114514       -0.98344610       -3.86548114
 C            1.16859077        0.35115403       -4.26242726
 C            0.16754413        1.39769491       -4.34992846
 C           -0.59367328       -1.28629546       -3.73913309
 C           -2.12751909        1.88467670       -3.58754370
 C           -3.11617279        1.00950801       -2.98307318
 C           -2.84336614       -0.34346199       -3.42898739
 C           -1.17814634        1.04935723       -4.31282330
 C           -1.55629148       -0.34157728       -4.10299491
