   70
C70 / DATE: 7/ 1/2024 / Origin: Program Fullerene / C70 from database
 C            1.23994826       -0.15550787        4.97245230
 C            2.53115056       -0.51622130        4.42376861
 C            2.36474871       -1.77671343        3.70889472
 C            0.39202697       -1.32650406        4.86057979
 C            0.97037223       -2.16624304        3.83033593
 C           -0.95776152       -0.84687983        4.67602410
 C            0.50642657        0.94766936        4.36944328
 C           -0.88988781        0.59414022        4.45189568
 C            0.99590569        1.53828494        3.20493583
 C            3.16061780        0.41351142        3.51230945
 C            2.36712013        1.50448613        2.97164416
 C            2.92969620       -1.61015173        2.37796046
 C            3.64001967       -0.35401634        2.37630813
 C            2.14796205       -1.92555434        1.27027867
 C            0.24724137       -2.42001225        2.66616711
 C            0.94597838       -2.60033783        1.47257383
 C           -1.74270306       -1.39216614        3.58872403
 C           -1.13967018       -2.20879296        2.62969810
 C           -1.75075070        0.88859983        3.32580283
 C           -2.56325300       -0.29538662        3.12888524
 C            0.12724900        1.87517504        2.15066140
 C           -1.23140755        1.53115681        2.20103147
 C            0.64867958        2.41233911        0.96617539
 C            2.84823438        1.71291715        1.62992866
 C            3.50422458        0.49003913        1.21125635
 C            2.01826916        2.30494838        0.69935128
 C            2.38146195       -1.28496604        0.04146346
 C            3.07256043       -0.06661591        0.01202092
 C            1.64053580       -1.67994035       -1.08258966
 C            0.27274119       -3.10074532        0.37455404
 C            0.72396957       -2.71742439       -0.95021621
 C           -1.82777754       -2.42315923        1.43047216
 C           -1.17707836       -3.06582958        0.38098482
 C           -3.19633814       -0.43990035        1.91369711
 C           -2.96459641       -1.66168206        1.16047289
 C           -1.97604053        1.48400134        1.01678182
 C           -3.08157543        0.64356242        0.95779964
 C           -0.21341227        2.65851467       -0.11369430
 C           -1.43521211        1.98483662       -0.16999685
 C            0.33279117        3.18054810       -1.28622011
 C            2.38351059        2.12667634       -0.62090413
 C            2.76246505        0.83404243       -1.00075890
 C            1.73807779        2.92606000       -1.54083136
 C            1.58284790       -0.85620643       -2.21560662
 C            2.31830291        0.33444768       -2.21922253
 C            0.61788904       -1.09998255       -3.21015319
 C           -0.42566845       -2.76753510       -1.82727387
 C           -1.61797631       -2.86240707       -0.99218257
 C           -0.46093646       -1.95579574       -2.94955038
 C           -3.32349690       -1.36063783       -0.21447295
 C           -3.46611872        0.08638253       -0.31372824
 C           -2.71280065       -2.04136001       -1.26533414
 C           -2.01332572        1.64986636       -1.41386397
 C           -3.04262587        0.69618357       -1.47902232
 C           -0.36933632        3.01231032       -2.54474777
 C           -1.47350879        2.16692447       -2.60356802
 C            1.89231229        2.60848021       -2.94120763
 C            2.19619789        1.23336536       -3.27358064
 C            0.64376748        2.94319374       -3.58976559
 C            0.60777648       -0.32899925       -4.37416716
 C            1.39249732        0.88536502       -4.42327856
 C            0.47508608        1.99432158       -4.67000879
 C           -1.84408804        1.62408283       -3.84010269
 C           -0.66113511       -0.00947154       -4.99934429
 C           -0.83779875        1.42603745       -4.86915244
 C           -1.71730555       -1.65709489       -3.46623659
 C           -2.81353096       -1.47661798       -2.53536208
 C           -3.17334079       -0.07204685       -2.62418140
 C           -1.85851543       -0.62388105       -4.47171910
 C           -2.66168879        0.43431672       -3.87328861
