   70
C70 / DATE: 7/ 1/2024 / Origin: Program Fullerene / C70 from database
 C            1.34498912        0.15015206        5.18903213
 C            0.54667834       -1.05785575        5.10679921
 C            1.36150752       -2.08287972        4.48189239
 C            2.56327592       -0.07367414        4.42697168
 C            2.57841516       -1.45177061        3.99501382
 C            2.63681424        0.95440329        3.41363010
 C            0.60380107        1.21600894        4.53382449
 C            1.47896254        1.82282319        3.55985585
 C           -0.72434636       -0.71098361        4.49385252
 C           -0.64876325        0.67554992        4.05900066
 C           -1.33772670       -1.63091168        3.65519200
 C            0.79179673       -2.84409817        3.38588527
 C           -0.57490903       -2.76903919        3.14966476
 C            2.68480819       -1.73024464        2.57251623
 C            1.69829429       -2.74413396        2.25188934
 C            3.03589337        0.63025123        2.11893554
 C            2.89220267       -0.69198370        1.66355531
 C            2.92623482        1.66016713        1.19354597
 C            0.93016910        2.34280975        2.39267582
 C            1.83316639        2.60054628        1.37339521
 C           -1.06693936        1.00520790        2.77045825
 C           -0.38034678        1.98807342        2.03723987
 C           -2.14493669       -1.13523241        2.55391759
 C           -1.97964625        0.17214323        2.11778594
 C           -1.05543992       -3.04426926        1.80930058
 C           -2.20187645       -2.18536205        1.56270607
 C            1.17240917       -2.77779765        0.96355343
 C           -0.13847528       -3.22436248        0.77908272
 C            2.60001322       -0.92898101        0.31470119
 C            1.77844657       -2.01088337       -0.03646257
 C            3.00905991        1.36425811       -0.21948015
 C            2.91561548        0.04502908       -0.63390273
 C            1.33920501        2.96104961        0.06466814
 C            2.22639792        2.37341887       -0.91497236
 C           -0.87380341        2.34440265        0.77459735
 C           -0.02079154        2.91514576       -0.18181955
 C           -2.39137545        0.50180465        0.83152281
 C           -2.06841234        1.76345915        0.34942358
 C           -2.48570214       -1.84659230        0.24513277
 C           -2.74467876       -0.51114959       -0.07343282
 C           -0.65010938       -3.26407135       -0.51032944
 C           -1.95284533       -2.66098623       -0.74157460
 C            1.37269745       -2.18376993       -1.36148710
 C            0.19953037       -2.87833516       -1.62048731
 C            2.65132055       -0.19154652       -1.97689805
 C            1.90318316       -1.37358198       -2.35594601
 C            1.70589927        2.06346652       -2.16371746
 C            2.16694591        0.91010609       -2.79368385
 C           -0.43976670        2.97549146       -1.50981697
 C            0.45329533        2.57194317       -2.52011046
 C           -2.63136786        2.17816935       -0.84808120
 C           -1.81099709        2.96798866       -1.73823492
 C           -3.03003750       -0.16439178       -1.40032969
 C           -3.28532438        1.18099327       -1.67115575
 C           -1.99188878       -2.21321263       -2.11535508
 C           -0.67531465       -2.43274795       -2.69290225
 C           -2.66343325       -1.04185011       -2.43759262
 C            1.09793604       -1.03899157       -3.52752297
 C            1.40476439        0.34154111       -3.89015808
 C           -0.20924089       -1.52456758       -3.63963616
 C           -0.00346790        2.33142340       -3.81699373
 C            0.42898747        1.11936461       -4.49528513
 C           -2.33242530        2.79445744       -3.07828212
 C           -3.26719301        1.67781417       -3.03520931
 C           -1.39753016        2.55286564       -4.15216561
 C           -2.45733718       -0.55920987       -3.72785122
 C           -1.15850523       -0.78406809       -4.34589154
 C           -0.75926147        0.45521611       -4.98350967
 C           -2.91161964        0.76491299       -4.09389469
 C           -1.86688128        1.39107780       -4.88704538
