   70
C70 / DATE: 7/ 1/2024 / Origin: Program Fullerene / C70 from database
 C            1.54938282        0.10978668        4.59518458
 C            0.72942393       -1.08815375        4.55206529
 C            1.41153692       -2.05774777        3.71853060
 C            2.61511312       -0.04578591        3.61904517
 C            2.58680118       -1.40800391        3.15425402
 C            2.48514427        1.00291113        2.63493629
 C            0.72527523        1.22117718        4.16510348
 C            1.39995596        1.87090098        3.05759544
 C           -0.62059250       -0.70001535        4.19851505
 C           -0.62174980        0.73109423        3.93792984
 C           -1.35084639       -1.53411809        3.36814964
 C            0.66882806       -2.90375330        2.89331291
 C           -0.70705608       -2.68880828        2.74816941
 C            1.35594408       -3.55459125        1.87008448
 C            2.89158358       -1.67838557        1.82910405
 C            2.61133859       -2.97291323        1.42500096
 C            2.58581251        0.68443277        1.28107380
 C            2.82676283       -0.64010081        0.87600910
 C            2.07152531        1.59482844        0.35893079
 C            0.61387097        2.44032263        2.06847147
 C            1.15218775        2.55734103        0.79266271
 C           -1.30900027        1.23349809        2.83567238
 C           -0.77057098        2.34437155        2.18491038
 C           -2.24733072       -0.94746607        2.38826632
 C           -2.22203977        0.42419593        2.14765305
 C           -1.34155131       -2.89980027        1.45156441
 C           -2.31607278       -1.84564680        1.25272884
 C            0.64275870       -3.94956613        0.66948397
 C           -0.57426954       -3.33614159        0.37977115
 C            2.80598027       -3.33565663        0.04472822
 C            1.64537318       -4.11253691       -0.36365762
 C            2.79674202       -0.94976745       -0.49703050
 C            2.96966953       -2.26987972       -0.91521880
 C            2.21178833        1.33651448       -1.00127881
 C            2.36308966        0.01264367       -1.42239761
 C            1.79140521        2.30102521       -1.91443256
 C            0.45904795        3.31954379       -0.14320908
 C            0.94506551        3.38183443       -1.44283887
 C           -1.54555169        2.98361762        1.23036277
 C           -0.87714071        3.62945987        0.11282774
 C           -2.77626104        0.89856637        0.95475822
 C           -2.67748126        2.26133243        0.68693892
 C           -2.47434363       -1.29108984       -0.00588824
 C           -2.98986900       -0.00076260       -0.09826577
 C           -0.83714526       -2.84024925       -0.90745002
 C           -1.79658374       -1.83758626       -1.09891688
 C            1.31950841       -3.71636772       -1.71115326
 C            2.29551577       -2.71471270       -2.11310649
 C            0.01144814       -3.15097933       -1.96952636
 C            1.81147798       -0.38437742       -2.65392500
 C            1.58983292       -1.73048102       -2.89707938
 C            0.21043645       -2.15812923       -3.00416381
 C            1.24837820        1.85738010       -3.18048201
 C            0.98009310        0.50492599       -3.32587281
 C            0.05358175        3.76038609       -2.52841685
 C            0.28784827        2.84427437       -3.63182444
 C           -1.83657481        3.68801153       -0.97843338
 C           -2.91739256        2.76176945       -0.65561656
 C           -1.37652537        3.80780264       -2.28445957
 C           -3.37822866        0.46230674       -1.35037929
 C           -3.40234892        1.88976934       -1.61871681
 C           -1.87126472       -1.18979407       -2.33826990
 C           -0.74061553       -1.16264937       -3.15592044
 C           -0.31243629        0.06757586       -3.65342990
 C           -2.84102354       -0.20523692       -2.52232780
 C           -0.99682652        2.38756496       -4.11431495
 C           -2.03049524        3.06804392       -3.35015126
 C           -3.04846374        2.08925312       -3.01200600
 C           -1.28578274        0.96720068       -4.07643286
 C           -2.62609333        0.80559121       -3.54720154
