   70
C70 / DATE: 7/ 1/2024 / Origin: Program Fullerene / C70 from database
 C            1.20734962        0.28435159        4.74383428
 C            2.44883637        0.05780226        4.03559847
 C            2.47863331       -1.34515425        3.66847158
 C            0.38285305       -0.90693423        4.57516352
 C            1.11538160       -1.83729311        3.74526975
 C           -0.92612988       -0.47734175        4.14088452
 C            0.40339870        1.42750938        4.36747532
 C           -0.96616964        0.96577657        4.24435682
 C            0.72147472        2.14253862        3.14280798
 C            2.72199693        0.81694100        2.82617071
 C            1.77568026        1.71457905        2.33213416
 C            3.16780455       -1.44599282        2.39852558
 C            3.37745616       -0.09102399        1.90362040
 C            2.72877324       -2.40521476        1.49955024
 C            0.52365319       -2.34701122        2.58947630
 C            1.35814400       -2.88922532        1.61140722
 C           -1.50097463       -1.05232443        3.01576275
 C           -0.78849718       -1.98542841        2.24699771
 C           -2.54788905       -0.36441593        2.41317012
 C           -1.57797717        1.69907921        3.15135162
 C           -0.54394045        2.49955461        2.52210217
 C           -2.45976371        1.02955289        2.31566872
 C           -0.58451764        2.65837543        1.14178229
 C            1.70423450        1.94192139        0.95658403
 C            0.61656797        2.64933423        0.44254947
 C            3.26845993        0.14032116        0.53658081
 C            2.57302752        1.26808071        0.08810792
 C            2.99393357       -2.19178482        0.09172413
 C            3.43124921       -0.94012087       -0.32947174
 C            0.84944024       -3.09485575        0.26496398
 C            1.93461719       -2.84066281       -0.66161012
 C           -1.30141109       -2.36151447        0.99697266
 C           -0.42377576       -2.64934010       -0.04523635
 C           -3.30288537       -1.05156391        1.47484632
 C           -2.62594262       -2.06903329        0.69148676
 C           -4.15161425       -0.29145147        0.57812521
 C           -2.76738243        1.62985059        1.09893559
 C           -1.77213197        2.38045216        0.45363255
 C           -3.83472410        1.10782042        0.38100025
 C           -1.82567169        2.60924655       -0.93039073
 C            0.60115528        2.99885235       -0.89565080
 C           -0.66613727        2.98010934       -1.60570211
 C            2.53735861        1.54044916       -1.28271365
 C            1.62262271        2.46871495       -1.77736712
 C            3.42933458       -0.69640666       -1.69416398
 C            3.14993390        0.64804308       -2.15807591
 C            1.65217311       -2.35127916       -1.93031733
 C            2.64870864       -1.58545069       -2.53370546
 C           -0.69777668       -2.18903498       -1.33721145
 C            0.31511692       -2.15962814       -2.30436360
 C           -2.99852363       -1.87544465       -0.70020422
 C           -4.10700029       -0.93755531       -0.71994300
 C           -1.99567999       -1.77703272       -1.66586695
 C           -3.94841617        1.38323581       -1.03211082
 C           -2.87697281        2.10429244       -1.68619292
 C           -4.10856221        0.10828010       -1.71833310
 C           -2.21620833       -1.00791130       -2.81701833
 C           -2.57708733        1.39862949       -2.92087298
 C           -3.10875415        0.05782396       -2.76187510
 C           -0.42378417        2.45619391       -2.94336656
 C            1.01611789        2.27826770       -3.08862629
 C           -1.31522433        1.53066481       -3.49392910
 C            2.66775203        0.52922547       -3.52583459
 C            2.37621984       -0.87746030       -3.76611044
 C            1.51055309        1.29974629       -3.93887180
 C            0.02013439       -1.65714348       -3.56954672
 C           -1.20103666       -0.90264789       -3.75578946
 C           -0.81797337        0.43241613       -4.19446885
 C            1.04943551       -0.96914453       -4.32902699
 C            0.58095369        0.38579473       -4.57312329
