   70
C70 / DATE: 7/ 1/2024 / Origin: Program Fullerene / C70 from database
 C            1.26869230       -0.09221396        4.44790000
 C            2.53796327       -0.31895961        3.78486421
 C            2.45918509       -1.60171116        3.10588502
 C            0.42420507       -1.24846045        4.19496445
 C            1.11041692       -2.10794483        3.25426130
 C           -0.89534282       -0.76935988        3.83867199
 C            0.50526198        1.09876638        4.11842381
 C           -0.84521648        0.68406820        3.77712232
 C            1.10177884        2.11565289        3.38830446
 C            3.01692599        0.66258966        2.82712022
 C            2.39655694        1.89958454        2.74702122
 C            2.97938720       -1.42830752        1.76636764
 C            3.35219231       -0.03628082        1.59880978
 C            2.33775125       -2.05250935        0.70757926
 C            0.42436659       -2.51813681        2.11701226
 C            1.12561785       -2.71867947        0.92313408
 C           -1.61418424       -1.43929676        2.85591721
 C           -0.96777855       -2.41548233        2.08618375
 C           -2.70972501       -0.77079317        2.32086801
 C           -1.55046903        1.33537348        2.76137308
 C           -2.65333044        0.67910483        2.22403258
 C            0.28729373        2.87650242        2.46122404
 C           -0.93211861        2.35480461        2.02687615
 C            2.36343755        2.58489024        1.46802326
 C            1.19992985        3.45048439        1.49076064
 C            3.11077056        0.56274987        0.36167746
 C            2.66815011        1.89239114        0.29521939
 C            2.63439799       -1.60832566       -0.57365675
 C            2.97679433       -0.26402768       -0.75602772
 C            2.19369702       -2.37630714       -1.64336229
 C            0.47071763       -3.30102121       -0.16661433
 C            1.09998080       -3.30260772       -1.41195716
 C           -1.65360925       -3.03447737        1.04720621
 C           -0.90293192       -3.53669875       -0.09186855
 C           -3.36114202       -1.27932868        1.12890463
 C           -2.88492964       -2.44507473        0.54609550
 C           -3.14449789        1.05276146        0.91210745
 C           -3.70582138       -0.13804646        0.29549972
 C           -1.41142511        2.71079774        0.75876306
 C           -2.41181287        1.94847078        0.14248294
 C            0.68573665        3.88709281        0.28563765
 C           -0.72728085        3.68066747        0.02847360
 C            2.24793872        2.42833903       -0.92819709
 C            1.38188566        3.52288875       -0.93482911
 C            2.86937087        0.31908980       -2.01161686
 C            2.43266622        1.69888543       -2.10159910
 C            2.00668538       -1.76923594       -2.95024920
 C            2.24701474       -0.41358876       -3.10021900
 C            0.29730904       -3.34699941       -2.62143518
 C            0.79646655       -2.32565675       -3.52675186
 C           -1.73792242       -3.38112930       -1.27617481
 C           -2.89633466       -2.58797565       -0.90076400
 C           -1.13913592       -3.18526400       -2.51370111
 C           -3.67746480       -0.25817771       -1.08528608
 C           -3.29128545       -1.51998339       -1.69904443
 C           -2.54236808        1.92650989       -1.25455042
 C           -3.10468433        0.81550572       -1.87633409
 C           -0.90124344        3.73767613       -1.40686753
 C            0.41981263        3.66373002       -2.01301055
 C           -1.73413403        2.74055060       -2.03837718
 C            1.44651959        1.78026558       -3.17356862
 C            1.19695569        0.43214089       -3.64462089
 C            0.38140977        2.65515492       -3.05487853
 C           -0.97155928        2.12914270       -3.11678174
 C           -0.30363197       -1.42981579       -3.83984641
 C           -1.51865663       -2.03773152       -3.32669418
 C           -2.56100620       -1.21842692       -2.92151729
 C           -2.40369207        0.22322782       -3.00411666
 C           -0.10978747       -0.05338454       -3.72204668
 C           -1.19071981        0.78156105       -3.40820296
