   70
C70 / DATE: 7/ 1/2024 / Origin: Program Fullerene / C70 from database
 C            1.62110806        0.01983596        4.50829897
 C            0.78955808       -1.16449575        4.44086312
 C            1.29049173       -2.01778855        3.37399822
 C            2.61964802       -0.08397086        3.46081328
 C            2.39319098       -1.32076400        2.73895476
 C            2.59457777        1.15441775        2.70600037
 C            0.77652683        1.15834260        4.19199561
 C            1.43262716        1.90441250        3.14462971
 C           -0.59040133       -0.72320573        4.36427932
 C           -0.56036422        0.66649611        3.93433247
 C           -1.48833186       -1.57374900        3.74911256
 C            0.35667821       -2.68302328        2.58327890
 C           -0.95326671       -2.73414524        3.05908043
 C            0.59399238       -2.83199867        1.20713431
 C            2.45151588       -1.28069492        1.35586524
 C            1.68216159       -2.17327515        0.60887781
 C            2.83668460        1.10131496        1.33479093
 C            2.98722502       -0.15125950        0.73608851
 C            2.38861466        2.16892383        0.54804458
 C            0.66166511        2.48754310        2.15510852
 C            1.34159169        2.95613502        1.04503419
 C           -1.18993958        1.03289915        2.74114786
 C           -0.66966961        2.08355882        1.97824828
 C           -2.45784176       -1.00412336        2.83597992
 C           -2.13729136        0.17795799        2.17353209
 C           -2.00775694       -3.20197678        2.19059120
 C           -2.98008338       -2.12017991        2.07929384
 C           -0.34782629       -3.49983484        0.41045155
 C           -1.66706851       -3.60722836        0.84705919
 C           -0.10932773       -3.65771324       -0.94998301
 C            1.89932128       -2.26074689       -0.77015380
 C            1.01962991       -2.98837179       -1.56189621
 C            3.25489425       -0.21101859       -0.62068923
 C            2.69818928       -1.30509050       -1.39659695
 C            2.68195786        2.17121188       -0.82148788
 C            3.15122593        1.00108200       -1.41571062
 C            2.19759086        3.19405115       -1.63525370
 C            0.63257920        3.78019059        0.19257197
 C            1.17646818        4.07493925       -1.11222660
 C           -1.33332323        2.47026674        0.80764479
 C           -0.78529679        3.51397145        0.05344144
 C           -2.52501479        0.36720273        0.84127469
 C           -2.24375201        1.58529258        0.21791817
 C           -3.25611351       -1.93844710        0.67181613
 C           -2.72934758       -3.10678910       -0.00621278
 C           -3.06338060       -0.69202371        0.08782952
 C           -1.23251206       -3.55190237       -1.86877726
 C           -2.48984754       -3.02596870       -1.36813828
 C            0.57664721       -2.41615867       -2.82729736
 C           -0.82087785       -2.73260785       -2.99530621
 C            2.26694329       -0.76486919       -2.67559732
 C            2.67946458        0.62304200       -2.74046621
 C            1.02734636       -1.14849144       -3.17440776
 C            1.84443347        2.89476757       -3.01310144
 C            1.91039947        1.51778005       -3.46568671
 C            0.07306291        4.09934970       -2.05659730
 C           -1.12254893        3.66518590       -1.35182991
 C            0.49404234        3.37982992       -3.24384410
 C           -2.65002454        1.77457474       -1.10074226
 C           -1.96859323        2.74118062       -1.94286067
 C           -3.06032622       -0.62292703       -1.30619791
 C           -2.72854531       -1.76014722       -2.04585006
 C           -1.75393798       -1.63659901       -3.11981226
 C           -2.92861910        0.61364636       -1.92030153
 C            0.10982826       -0.16472712       -3.57912723
 C            0.57523193        1.11707810       -3.88430904
 C           -0.30583336        2.26148214       -3.70665699
 C           -1.56996620        2.05922321       -3.17076331
 C           -1.27104355       -0.36965945       -3.42513484
 C           -2.08904070        0.70878635       -3.10236578
