   70
C70 / DATE: 7/ 1/2024 / Origin: Program Fullerene / C70 from database
 C            1.39049636        0.03869922        4.97618801
 C            0.62979269       -1.17541503        4.74311181
 C            1.52984476       -2.15312982        4.17957345
 C            2.66080165       -0.10221130        4.28375192
 C            2.77689910       -1.47379369        3.84879148
 C            2.73173850        0.94101095        3.28393746
 C            0.66879913        1.13879218        4.35705164
 C            1.56727949        1.79870834        3.44168110
 C           -0.55334136       -0.81714896        3.98841399
 C           -0.56710782        0.62387545        3.81831204
 C           -0.95651365       -1.59484783        2.90776524
 C            1.11144640       -2.87183295        2.99177205
 C           -0.14677883       -2.64218613        2.43214903
 C            3.04819885       -1.73835023        2.44651736
 C            2.25846426       -2.90621073        2.10804899
 C            3.15411845        0.64619620        1.98752384
 C            3.11810749       -0.68243276        1.53015219
 C            3.02509733        1.67614153        1.06513900
 C            1.04460856        2.37686968        2.29104282
 C            1.95769527        2.64024258        1.28198213
 C           -1.02016906        1.12344621        2.60167957
 C           -0.28618990        2.11195343        1.93007922
 C           -1.90234970       -1.04217902        2.05036469
 C           -1.91726749        0.34543171        1.87017920
 C           -2.45100847       -1.86319343        1.08311482
 C           -0.39455035       -3.16416280        1.15647204
 C           -1.63095348       -2.93586261        0.56135995
 C            2.03555533       -3.17833849        0.77204605
 C            0.68559695       -3.51134515        0.34666077
 C            2.89332464       -0.95947600        0.17092215
 C            2.56090974       -2.25335869       -0.21481308
 C            3.03867255        1.37636407       -0.34929304
 C            2.77914518        0.07584311       -0.75924411
 C            1.48010026        3.06523703       -0.01353037
 C            2.35988849        2.47781387       -1.00541510
 C           -0.76409012        2.55105278        0.69033003
 C            0.11510696        3.08322367       -0.26174335
 C           -2.51293880        0.90175477        0.73660415
 C           -2.02736496        2.13151325        0.27689005
 C           -3.18168400       -1.27562678       -0.01690883
 C           -3.32003780        0.10205490       -0.08538543
 C           -1.74442529       -2.90898411       -0.89199699
 C           -2.82617250       -1.99445656       -1.22782827
 C            0.62369793       -3.24906635       -1.08147287
 C            1.79341824       -2.45257795       -1.42669518
 C           -0.59666520       -2.94489938       -1.67824723
 C            2.16164396       -0.14475913       -2.00073762
 C            1.64079433       -1.40359316       -2.32184085
 C            1.86336865        2.28196020       -2.28029925
 C            1.90237555        0.94206781       -2.83931915
 C           -0.30948071        3.21122283       -1.58529283
 C            0.56332940        2.84099190       -2.61290831
 C           -2.58027019        2.72145026       -0.85275865
 C           -1.67461352        3.27145941       -1.84419718
 C           -3.81622546        0.61991160       -1.27535048
 C           -3.63772435        2.02649426       -1.55197897
 C           -2.80454633       -1.29142931       -2.42894427
 C           -3.55239906       -0.11602693       -2.50475981
 C           -0.58140284       -2.26218317       -2.89081088
 C            0.60887508       -1.50836763       -3.25128016
 C           -1.74104566       -1.48943968       -3.31178417
 C            0.83920303        0.85822353       -3.82901688
 C            0.06316338        2.08769522       -3.75258360
 C            0.19443140       -0.35264629       -4.02515858
 C           -1.25509409       -0.39319632       -4.14370750
 C           -2.16006435        2.88073968       -3.15701887
 C           -3.41700247        2.17865855       -2.97954633
 C           -3.26430517        0.85077589       -3.54801631
 C           -1.30391725        2.06426903       -3.99671263
 C           -1.97828911        0.79058330       -4.21301113
