   70
C70 / DATE: 7/ 1/2024 / Origin: Program Fullerene / C70 from database
 C            1.23772426       -0.05204421        4.12137430
 C            2.53859403       -0.37313544        3.58320205
 C            2.53740197       -1.78421475        3.24060285
 C            0.41164560       -1.24739014        4.03819446
 C            1.16910074       -2.26464737        3.34715472
 C           -0.86742394       -0.85648092        3.49597920
 C            0.48967817        1.03416750        3.52118573
 C           -0.87668884        0.58783112        3.36310350
 C            1.04639752        1.79230090        2.49991129
 C            3.00683777        0.35829028        2.42380234
 C            2.29139136        1.45144785        1.94576296
 C            3.22676047       -1.93490399        1.97051077
 C            3.50017089       -0.60069560        1.45588642
 C            2.77278443       -2.90770648        1.09625689
 C            0.60862758       -2.92059371        2.25323769
 C            1.48934705       -3.53604115        1.36564787
 C           -1.43941236       -1.60293803        2.47641133
 C           -0.70761886       -2.62600548        1.84340689
 C           -2.53097785       -1.04318575        1.82276730
 C           -1.64405829        1.13870523        2.34228058
 C           -2.65015140        0.35484457        1.78344628
 C            0.19268866        2.61413754        1.76850515
 C           -1.15635567        2.24009657        1.62194183
 C            0.77669024        3.50512606        0.87786884
 C            2.60576592        1.91918261        0.66966100
 C            2.02639423        3.11443340        0.25650796
 C            3.31082942       -0.31658426        0.10409262
 C            3.11257317        1.01472261       -0.27336819
 C            2.81755369       -2.64397150       -0.32869118
 C            2.93351381       -1.33382523       -0.78050616
 C            0.99728247       -4.05418063        0.11101031
 C            1.82838137       -3.50443230       -0.94972612
 C           -1.24291032       -3.25582357        0.70234404
 C           -0.38068870       -3.81037191       -0.23839039
 C           -3.22952033       -1.84315727        0.93230393
 C           -2.49611907       -2.87118430        0.23065173
 C           -4.15052728       -1.25075187       -0.01705481
 C           -3.55517109        0.97138205        0.93088746
 C           -4.33952407        0.18101988        0.00321635
 C           -1.95659051        2.81189802        0.61441954
 C           -3.13199149        2.16609070        0.22899705
 C           -0.03945908        4.15188208       -0.12045316
 C           -1.38009311        3.65997933       -0.32768651
 C            1.94971372        3.44506823       -1.15562812
 C            0.66691505        4.08863187       -1.39012148
 C            3.04795852        1.30872258       -1.63360899
 C            2.43752322        2.54520593       -2.09004022
 C            2.35629173       -0.99224428       -2.00387193
 C            2.65397908        0.25048496       -2.54467555
 C            0.94756439       -2.93603345       -1.95496067
 C           -0.41214909       -3.28707483       -1.59488095
 C            1.19919995       -1.65662901       -2.42449046
 C           -2.62308432       -2.57491751       -1.18887541
 C           -3.68917739       -1.61386994       -1.34829407
 C           -1.45841801       -2.43483750       -1.93418868
 C           -4.05643061        0.67636776       -1.33362380
 C           -3.34391038        1.92792651       -1.19206472
 C           -3.40531453       -0.38936374       -2.06114670
 C           -1.52056070        3.31848197       -1.73400503
 C           -0.24123344        3.53469329       -2.38257464
 C           -2.29283809        2.20849503       -2.05727189
 C            1.63897993        2.24039931       -3.26698566
 C            1.74759510        0.81615463       -3.52477747
 C            0.22837049        2.58920444       -3.28124285
 C            0.13767077       -0.92657456       -2.95846896
 C           -1.16784265       -1.19755749       -2.53445006
 C           -2.11884926       -0.16325846       -2.53972486
 C           -1.70955420        1.15383942       -2.77585225
 C            0.40767844        0.26871940       -3.61461149
 C           -0.53293028        1.36669302       -3.48621986
