   70
C70 / DATE: 7/ 1/2024 / Origin: Program Fullerene / C70 from database
 C            1.04127703        0.27430368        4.91596876
 C            2.28748141        0.10480885        4.20042283
 C            2.36343881       -1.28833640        3.80815837
 C            0.23812927       -0.92279053        4.68775332
 C            1.01538810       -1.82388954        3.87217623
 C           -1.05468944       -0.49938459        4.20511492
 C            0.21714247        1.41843772        4.59119768
 C           -1.13956322        0.93087713        4.43793811
 C            0.52249973        2.19477199        3.40050334
 C            2.52699079        0.89413467        3.00426596
 C            1.56775709        1.81006815        2.56055191
 C            3.05586934       -1.34789923        2.53413115
 C            3.16330300        0.01505674        2.03527135
 C            2.67230099       -2.33678194        1.64530553
 C            0.46651711       -2.35538957        2.70856699
 C            1.35757492       -2.93856028        1.81655287
 C           -1.54846633       -1.00666637        3.00352359
 C           -0.76946114       -1.88518016        2.22804293
 C           -2.60001533       -0.31586912        2.40648306
 C           -1.78049398        1.74519913        3.42585982
 C           -0.74918433        2.57264908        2.81204919
 C           -2.69675298        1.12629404        2.59090955
 C           -0.81548853        2.80989391        1.44307505
 C            1.48642834        2.09562207        1.19541100
 C            0.35519426        2.74207378        0.68034679
 C            2.95463960        0.26701962        0.68333526
 C            2.39060173        1.48599090        0.32550504
 C            2.83479887       -2.09394937        0.22571272
 C            2.93122555       -0.78966097       -0.23591171
 C            0.89509988       -3.34560966        0.51146823
 C            1.93087530       -2.99586637       -0.44937220
 C           -1.18928355       -2.23121753        0.92770904
 C           -0.42953657       -3.12824122        0.16039425
 C           -2.97006994       -0.60970672        1.03847852
 C           -2.23417709       -1.52550512        0.31755680
 C           -2.93251528        1.70746079        1.28484625
 C           -2.04794519        2.66719102        0.80557931
 C           -3.33912048        0.63522331        0.39221997
 C           -2.13995079        3.00090322       -0.53633742
 C            0.29853590        3.06470178       -0.67883255
 C           -0.93353762        3.39052369       -1.23847564
 C            2.40118478        1.84603423       -1.01071239
 C            1.36570311        2.72801424       -1.51066099
 C            2.59715876       -0.52567483       -1.56588542
 C            2.60767355        0.80042167       -1.99436730
 C            1.53195780       -2.70846619       -1.74609719
 C            1.95275131       -1.50639645       -2.33770341
 C           -0.75440305       -3.33096984       -1.18105500
 C            0.32816294       -3.27832509       -2.14828062
 C           -2.33985431       -1.50243154       -1.06551033
 C           -1.85437984       -2.59155003       -1.76345369
 C           -3.10253822        0.79552227       -0.97262499
 C           -2.85756397        2.09314937       -1.41505256
 C           -2.62243636       -0.29311347       -1.72139599
 C           -1.17416497        3.14926322       -2.65133269
 C           -2.36172004        2.31277299       -2.75382632
 C            1.13383567        2.38181451       -2.90789800
 C            1.90940507        1.18642706       -3.20700281
 C           -0.13204002        2.53820115       -3.45506277
 C            1.53190523       -1.19298852       -3.63368892
 C            1.37882381        0.19880351       -4.02438409
 C           -0.24299609       -2.92912346       -3.43030754
 C           -1.60404512       -2.47532072       -3.18340526
 C            0.42598518       -1.92389642       -4.22601456
 C           -2.27274339       -0.11657788       -3.07369291
 C           -2.02043612        1.16401721       -3.55810920
 C           -0.73854487        1.43823413       -4.18690209
 C            0.04386401        0.36227745       -4.58684623
 C           -1.75781979       -1.18137183       -3.80834787
 C           -0.57554275       -0.95144733       -4.62383502
