   70
C70 / DATE: 7/ 1/2024 / Origin: Program Fullerene / C70 from database
 C            1.26659807       -0.13785057        4.08224690
 C            2.38992762       -0.34881642        3.18654808
 C            2.30216495       -1.71235423        2.68678141
 C            0.40074284       -1.30278226        3.99698712
 C            1.01166780       -2.24726116        3.09636333
 C           -0.93381083       -0.84748334        3.69988484
 C            0.44625479        1.04498756        3.91024927
 C           -0.91935972        0.60704452        3.66872589
 C            0.95205590        2.10371228        3.17663148
 C            2.78117117        0.67115858        2.32447511
 C            2.19281318        1.93263343        2.42973347
 C            3.48148421        0.33963105        1.16970096
 C            2.78366352       -2.01498958        1.41355409
 C            3.47818644       -1.03848412        0.69884436
 C            2.20662134       -3.07989611        0.72037213
 C            0.23241977       -2.89782562        2.14848316
 C            0.92890534       -3.60408592        1.17707529
 C           -1.69547978       -1.51707450        2.75004004
 C           -1.08429551       -2.45719550        1.89204599
 C           -2.85595736       -0.86847853        2.34724380
 C           -1.71635654        1.26149676        2.72684147
 C           -2.83734768        0.58346170        2.25371067
 C            0.04818263        2.86458924        2.33826595
 C           -1.17686165        2.30934922        1.96974192
 C            2.11591274        2.79253133        1.25653308
 C            0.86434911        3.52717798        1.33717870
 C            3.41014717        1.21142774        0.00605685
 C            2.56027788        2.31418223        0.02611085
 C            3.37858844       -1.00680737       -0.75250850
 C            3.49017338        0.37632306       -1.17925530
 C            2.16360191       -3.04770842       -0.73323380
 C            2.48895326       -1.86721427       -1.38774874
 C            0.22851930       -4.12823758        0.03141136
 C            1.00379391       -3.79938895       -1.15486191
 C           -1.79158283       -2.95900913        0.77762542
 C           -1.13020602       -3.70047711       -0.19345279
 C           -3.60898224       -1.37888952        1.23010242
 C           -2.99102540       -2.37435828        0.38933422
 C           -3.39827032        0.94393679        0.96596829
 C           -3.98175022       -0.25080807        0.39196439
 C           -1.72872495        2.63814237        0.72600998
 C           -2.68299383        1.80242880        0.14554484
 C            0.26257891        3.95335278        0.16765165
 C           -1.13901455        3.63959199       -0.04031386
 C            1.94826013        2.75096565       -1.15404258
 C            0.93913690        3.71093371       -1.09257104
 C            2.84359922        0.77898368       -2.33306228
 C            2.16110252        2.06042392       -2.34836090
 C            1.68508600       -1.39105812       -2.43483101
 C            2.00612852       -0.17502797       -3.03952642
 C            0.10850936       -3.20045940       -2.11766703
 C           -1.24244567       -3.28927286       -1.58450247
 C            0.48996897       -2.04160915       -2.78088538
 C           -3.14830421       -1.95149286       -0.99452603
 C           -3.65461442       -0.58667787       -0.97768563
 C           -2.17726212       -2.31268365       -1.93090813
 C           -2.70209099        1.61315959       -1.24299156
 C           -3.03984910        0.36539782       -1.77940530
 C           -1.37452333        3.66069401       -1.47083693
 C           -0.07891587        3.74516159       -2.12878666
 C           -2.10646913        2.56199763       -2.06944802
 C            1.09699670        1.97349478       -3.33787690
 C            0.98053126        0.57971094       -3.73977903
 C           -0.04658563        2.74725752       -3.18207148
 C           -1.35690208        2.11666964       -3.23135716
 C           -0.50629388       -1.34463192       -3.45598505
 C           -1.87489272       -1.42994981       -2.96980139
 C           -2.40547309       -0.07699245       -2.93436125
 C           -0.27290932        0.01362296       -3.91404779
 C           -1.46952420        0.79169979       -3.62934647
