   70
C70 / DATE: 7/ 1/2024 / Origin: Program Fullerene / C70 from database
 C            1.53261675        0.00099879        4.84614681
 C            0.74090683       -1.19553053        4.63767703
 C            1.35576191       -1.97577698        3.57416407
 C            2.66324073       -0.05880645        3.94193591
 C            2.56271656       -1.28310377        3.16321016
 C            2.72177321        1.20200577        3.22679583
 C            0.71758101        1.13573195        4.44832396
 C            1.43683490        1.85918637        3.41247042
 C           -0.63761440       -0.78053208        4.46489157
 C           -0.61406701        0.63949971        4.14520331
 C           -1.45653504       -1.60473603        3.71388447
 C            0.52208736       -2.54150197        2.61083271
 C           -0.82879802       -2.65862691        2.93360930
 C            0.91871704       -2.53389137        1.26246418
 C            2.88143644       -1.22940454        1.81413185
 C            2.18578702       -2.04054230        0.91756917
 C            3.27745407        1.19027633        1.95817712
 C            3.53935105       -0.09598129        1.33541561
 C            2.69626459        2.03150502        0.92753412
 C            0.72926231        2.29646702        2.29460703
 C            1.41106709        2.53713280        1.09591035
 C           -1.23820415        1.08918378        2.98270588
 C           -0.65876121        2.14152558        2.27518077
 C           -2.43369508       -0.99452565        2.83414839
 C           -2.19823691        0.28851075        2.35362927
 C           -1.77657608       -3.03625899        1.91274794
 C           -2.82540039       -2.02366765        1.89845710
 C            0.03082840       -2.95613599        0.25458462
 C           -1.30667146       -3.18799690        0.55632529
 C            0.36182554       -2.77084319       -1.08947257
 C            2.59867167       -2.06144953       -0.41161938
 C            1.68395900       -2.52590218       -1.43545458
 C            3.61767083        0.13393735       -0.09452303
 C            3.05109896        1.44865176       -0.35390010
 C            3.30244248       -0.90600850       -0.94926097
 C            2.17739886        1.62020444       -1.42236732
 C            0.68876498        2.92212157       -0.03519881
 C            1.15601441        2.56257827       -1.30580543
 C           -1.37873679        2.71676760        1.24098142
 C           -0.64538668        3.27913448        0.12683135
 C           -2.69435252        0.66467537        1.09899643
 C           -2.49874331        1.97686510        0.68780403
 C           -3.04998344       -1.65289673        0.51670753
 C           -2.31155939       -2.59573092       -0.29957119
 C           -3.03007675       -0.30945903        0.14648625
 C           -0.65514351       -2.52162417       -2.02014257
 C           -1.92648692       -2.18069443       -1.56023123
 C           -0.31904140       -2.19098399       -3.33268703
 C            1.98261186       -1.78008451       -2.64736271
 C            2.70101598       -0.59418676       -2.23044452
 C            2.11759906        0.65600850       -2.43523162
 C            0.99608034       -1.63924319       -3.60572320
 C            1.20062400        0.80820401       -3.47862413
 C            0.78112404       -0.32444052       -4.18517145
 C            0.40922819        2.88168741       -2.43612004
 C            0.50290660        2.01156865       -3.59557844
 C           -1.53525750        3.26939530       -1.01605803
 C           -2.59218574        2.31176001       -0.72073337
 C           -0.98419660        3.27599016       -2.28618165
 C           -2.91310533       -0.01782616       -1.21897768
 C           -2.54263868       -1.05274735       -2.08863079
 C           -2.87878504        1.31505226       -1.64686754
 C           -1.27325573       -1.42842914       -4.12780180
 C           -0.53781101       -0.36482553       -4.79187177
 C           -2.40032786       -0.81672162       -3.44834931
 C           -0.78221452        2.05477606       -4.27453221
 C           -1.73591131        2.64298741       -3.35316305
 C           -2.69378301        1.61062811       -2.99669470
 C           -1.36385363        0.82372645       -4.76614970
 C           -2.53532764        0.53237269       -3.95003932
