   70
C70 / DATE: 7/ 1/2024 / Origin: Program Fullerene / C70 from database
 C            1.34698663       -0.17706486        4.09818449
 C            2.44354224       -0.47793839        3.19692454
 C            2.44388139       -1.91496227        2.98958362
 C            0.47559764       -1.33825422        4.13136399
 C            1.15716307       -2.42218934        3.44759138
 C           -0.83364717       -0.92150100        3.65944473
 C            0.52890607        0.98744925        3.82258083
 C           -0.82177473        0.52555387        3.54210136
 C            1.06297791        1.98757228        3.02834519
 C            2.68897511        0.37985743        2.12314419
 C            2.22329935        1.68656303        2.19714368
 C            3.09230044       -0.14691523        0.89171495
 C            3.00808837       -2.41621123        1.82706099
 C            3.51831312       -1.47497757        0.84662481
 C            2.33090299       -3.47795331        1.09623033
 C            0.41595173       -3.25888490        2.62389457
 C            1.01821751       -3.80048393        1.41538701
 C           -1.47895327       -1.66888812        2.67784558
 C           -0.96640207       -2.91790186        2.31498819
 C           -2.41690358       -1.04256840        1.85297816
 C           -1.55099206        1.11312838        2.51249404
 C           -2.52253299        0.35359841        1.86263730
 C            0.16424190        2.78872951        2.22420210
 C           -1.11460309        2.31409951        1.93998538
 C            2.10807810        2.47109915        0.98458418
 C            0.96054673        3.34734560        1.15164554
 C            2.85504591        0.56439300       -0.30272809
 C            2.32835745        1.86568467       -0.24843592
 C            3.04561026       -0.06169744       -1.54797758
 C            3.54965903       -2.16826372       -0.41833734
 C            2.69086210       -3.33606389       -0.30274684
 C            3.14289609       -1.44600692       -1.59599932
 C            1.63359316       -3.20109677       -1.29229900
 C            2.05075883       -2.17569410       -2.21994028
 C            0.00558914       -3.77747105        0.36906174
 C           -1.26305157       -3.46684510        1.00109694
 C            0.31073958       -3.23365233       -0.87978104
 C           -2.99256461       -1.77034852        0.81351876
 C           -2.25842796       -2.88000000        0.24234133
 C           -3.60788155       -1.07122931       -0.29502318
 C           -3.39630519        0.99324619        0.98828905
 C           -3.97340433        0.25281688       -0.12305127
 C           -1.80946576        2.85290937        0.85406074
 C           -3.04876976        2.31943836        0.51045513
 C            0.30832863        3.81061603        0.02431756
 C           -1.13773840        3.67554102       -0.05503901
 C            1.80913890        2.47037425       -1.39704571
 C            0.84356252        3.47171228       -1.28108599
 C            2.52042506        0.52973968       -2.68971045
 C            2.02285621        1.88451588       -2.63490017
 C            1.09801343       -1.43029240       -2.90244833
 C            1.56776493       -0.25017800       -3.46346498
 C           -0.64354469       -2.47227854       -1.56107588
 C           -1.96721903       -2.52179991       -1.13585944
 C           -2.87484341       -1.45194939       -1.49733848
 C           -0.24735379       -1.50326896       -2.49796768
 C           -2.45083493       -0.46558292       -2.37888517
 C           -1.17621684       -0.54306635       -2.94979200
 C           -3.96685697        1.12041561       -1.28431899
 C           -3.52373035        2.43580553       -0.85752241
 C           -3.16005621        0.73594705       -2.42732790
 C           -1.49228351        3.64645123       -1.46784814
 C           -0.25918481        3.52718285       -2.23062083
 C           -2.62307873        2.95003854       -1.87310753
 C           -2.51177463        1.93941419       -2.91661899
 C            1.00327029        2.00589939       -3.66494437
 C            0.63714969        0.66069736       -4.07850602
 C           -0.76773579        0.48455447       -3.80093098
 C           -0.22349634        2.71913091       -3.35969915
 C           -1.32996337        1.81195913       -3.62944396
