   70
C70 / DATE: 7/ 1/2024 / Origin: Program Fullerene / C70 from database
 C            1.37234109       -0.10582408        4.40525981
 C            2.55837337       -0.45141183        3.65950759
 C            2.47720837       -1.85999247        3.30416145
 C            0.53494649       -1.29280750        4.49157566
 C            1.22013378       -2.38032102        3.81258410
 C           -0.79893762       -0.91854151        4.04902383
 C            0.54026068        0.97987761        3.92203878
 C           -0.83676310        0.53143272        4.00417441
 C            0.93131504        1.73515770        2.81501430
 C            2.85175572        0.28737802        2.45045751
 C            2.09607194        1.40479285        2.09955357
 C            2.76881395       -1.98038037        1.88163610
 C            3.16966811       -0.67095457        1.41099128
 C            1.94515875       -2.76526764        1.07955890
 C            0.47956113       -3.22650290        2.99983948
 C            1.01658268       -3.60067714        1.70344202
 C           -1.40350807       -1.65588743        3.03197547
 C           -0.93101097       -2.94063334        2.78541624
 C           -2.17497364       -0.99584082        2.06530679
 C           -1.77258824        1.14535203        3.19143254
 C           -2.56119766        0.31895507        2.29374820
 C           -0.02073844        2.57551265        2.22699643
 C           -1.37340696        2.32180435        2.43863405
 C            0.34519667        3.36830343        1.14634982
 C            2.25674948        1.90009375        0.80631309
 C            1.57897446        3.06041041        0.45425972
 C            2.89050592       -0.31245869        0.10390615
 C            2.73370479        1.03846273       -0.18725890
 C            1.80168598       -2.44630924       -0.28139570
 C            2.37119750       -1.26029190       -0.77916726
 C            0.90890159       -3.18328213       -1.07499359
 C           -0.10001338       -4.11584032        0.94356203
 C           -1.31851204       -3.61708147        1.56526994
 C           -0.17373591       -3.79812079       -0.45990803
 C           -2.32412803       -1.53339066        0.78103400
 C           -2.04553209       -2.87125429        0.55769773
 C           -1.49596834       -3.25518038       -0.72249235
 C           -2.52563715       -0.68992615       -0.31639559
 C           -2.94950264        1.14977852        1.16979939
 C           -2.30097816        2.44261376        1.32878363
 C           -3.02572424        0.59871546       -0.10390426
 C           -0.65064157        3.72033126        0.14156965
 C           -1.91983638        3.13633049        0.18565639
 C            1.41415494        3.41590313       -0.94472961
 C            0.04829334        3.88113860       -1.12849829
 C            2.71400934        1.42202180       -1.52005028
 C            2.01674541        2.63243266       -1.91769206
 C            2.21642581       -0.90949030       -2.12454355
 C            2.46902915        0.40516209       -2.52676366
 C            0.70590352       -2.80549543       -2.39466496
 C            1.51645414       -1.75648057       -2.97196416
 C           -1.61916569       -2.39410708       -1.80502959
 C           -2.19277549       -1.12574061       -1.61404726
 C           -0.66498762       -2.55061541       -2.80374350
 C           -2.24858182       -0.22661322       -2.69104332
 C           -3.11788064        1.48445951       -1.16834911
 C           -2.57827466        2.82654617       -1.00181925
 C           -2.79701554        1.03604839       -2.50580668
 C           -0.61730918        3.62674266       -2.32117195
 C           -2.01303681        3.24258835       -2.27059017
 C           -2.21982225        2.16430260       -3.22153958
 C            1.32243782        2.36115111       -3.16616561
 C            1.67483285        1.01376605       -3.58636871
 C            0.02670962        2.83228464       -3.35765809
 C           -0.98148516        1.96545188       -3.95304601
 C            0.75071093       -1.19472175       -4.07371458
 C           -0.63076013       -1.61836024       -3.90285253
 C           -1.44475714       -0.42946949       -3.81352668
 C            0.74721713        0.24329148       -4.27260819
 C           -0.64284474        0.67067880       -4.32302699
