   70
C70 / DATE: 7/ 1/2024 / Origin: Program Fullerene / C70 from database
 C            0.98075106       -0.03283023        4.95043226
 C            2.28327854       -0.28015144        4.36574838
 C            2.23751191       -1.60537213        3.76914085
 C            0.16119691       -1.20711916        4.68662503
 C            0.85139255       -2.00027317        3.68963171
 C           -1.17253366       -0.74923603        4.39559307
 C            0.22207512        1.13097048        4.52822898
 C           -1.15557865        0.70853857        4.38689951
 C            0.75824595        2.00779192        3.59158054
 C            2.79900190        0.63348911        3.35940603
 C            2.08080849        1.76997061        3.02204649
 C            2.97972461       -1.55030518        2.53842385
 C            3.37815691       -0.17264661        2.30182542
 C            2.50981854       -2.25519670        1.44595762
 C            0.28412251       -2.19186251        2.42349204
 C            1.12158245       -2.47015984        1.33312916
 C           -1.79256306       -1.17030362        3.15779003
 C           -1.06755542       -1.88813454        2.20101002
 C           -1.91695359        1.13822746        3.22559557
 C           -2.57870338       -0.04323727        2.70945066
 C           -0.08843328        2.55269015        2.53788740
 C           -1.36423828        2.03640264        2.31137004
 C            2.05056325        2.19913492        1.63514417
 C            0.76734739        2.84026947        1.40443605
 C            3.37647664        0.27917752        0.97862318
 C            2.59537681        1.39199182        0.63171803
 C            3.23891636       -2.05065276        0.28983576
 C            3.64442808       -0.68217941        0.00709838
 C            2.77206156       -2.64312124       -0.93374113
 C            0.55040529       -2.69415904        0.07105272
 C            1.37313795       -2.99480690       -1.01051333
 C           -1.58416162       -1.91945302        0.90027209
 C           -0.77361917       -2.31803015       -0.16819187
 C           -2.96423807       -0.03050848        1.38704296
 C           -2.74168574       -1.18137293        0.64184114
 C           -1.89651563        2.06806668        1.01632418
 C           -2.93494144        1.18597082        0.71875518
 C            0.23342839        2.78551629        0.13126090
 C           -1.14043187        2.60588908       -0.03342324
 C            2.12009413        1.54916659       -0.68068670
 C            1.08265933        2.45675880       -0.91503357
 C            3.32084467       -0.41658564       -1.37782289
 C            3.04675375       -1.69399531       -1.99631311
 C            2.48953040        0.64850359       -1.68746576
 C            0.93835849       -2.65260504       -2.34813699
 C            1.94188465       -1.76463975       -2.92051752
 C           -1.26833699       -2.25610993       -1.48346140
 C           -0.39782878       -2.34969019       -2.57569549
 C           -3.32682356       -1.24496926       -0.61223651
 C           -2.58483516       -1.85160899       -1.69971727
 C           -3.52995085        1.23467636       -0.53211716
 C           -3.94054816       -0.02916763       -1.12120072
 C           -1.66195200        2.61285134       -1.33215879
 C           -2.90290008        2.02321297       -1.57666274
 C            0.62697934        2.66464905       -2.20660370
 C           -0.79855806        2.86543672       -2.39900786
 C            1.78402384        0.63231599       -2.89753307
 C            1.49230861       -0.59667438       -3.52038111
 C            1.09135587        1.78556411       -3.25964369
 C           -0.68755490       -1.64270273       -3.74415497
 C            0.32045924       -0.72988717       -4.25475151
 C           -2.93263295       -1.13833427       -2.92102501
 C           -3.69964614        0.03688804       -2.54721134
 C           -3.16439608        1.35426115       -2.84684185
 C           -1.98492387       -1.01917603       -3.92428082
 C           -1.13101007        2.38295050       -3.72787385
 C            0.05154852        1.73207044       -4.27154502
 C           -0.34497611        0.44094123       -4.78038568
 C           -2.25640052        1.48242018       -3.88824812
 C           -1.77118282        0.28049409       -4.55008559
