   70
C70 / DATE: 7/ 1/2024 / Origin: Program Fullerene / C70 from database
 C            1.25966319       -0.11055594        4.07044814
 C            2.38769725       -0.33443632        3.18462833
 C            2.29919213       -1.70257275        2.69699674
 C            0.40069246       -1.28234396        4.00524278
 C            1.00304536       -2.22831850        3.09981548
 C           -0.94091048       -0.83737007        3.72770943
 C            0.43374270        1.06460757        3.87179594
 C           -0.93355682        0.61596316        3.66906086
 C            0.92314550        2.10077881        3.09597891
 C            2.78997057        0.67416439        2.31441876
 C            2.17514118        1.92668188        2.36934651
 C            3.52778235        0.32611792        1.18858063
 C            2.79128591       -2.01534026        1.43072590
 C            3.53037104       -1.05803252        0.73512225
 C            2.19842537       -3.06292357        0.72396675
 C            0.21837143       -2.86838428        2.14800972
 C            0.90527449       -3.56600634        1.16208354
 C           -1.71815705       -1.52459305        2.80387296
 C           -1.11073927       -2.44634852        1.92283622
 C           -2.89798233       -0.89244336        2.43284593
 C           -1.75369931        1.24457281        2.73057377
 C           -2.89572437        0.55957345        2.33143270
 C            0.00992554        2.81049298        2.22159948
 C           -1.21957887        2.23581111        1.89807054
 C            2.09873368        2.74673686        1.16806592
 C            0.81414175        3.42594365        1.18229743
 C            3.49642655        1.18214962        0.01212753
 C            2.61163616        2.25674136       -0.03021813
 C            3.49367485       -1.04242650       -0.71877878
 C            3.66429353        0.33348716       -1.15463963
 C            2.18233048       -3.02909179       -0.73093253
 C            2.59682425       -1.87412716       -1.38023580
 C            0.19986395       -4.04936069        0.00117204
 C            0.97552155       -3.69383434       -1.17628284
 C           -1.82661819       -2.93554085        0.80740552
 C           -1.15331176       -3.60145392       -0.20968094
 C           -3.67382551       -1.41781491        1.33958621
 C           -3.04075961       -2.35911350        0.45077359
 C           -3.55071913        0.91632876        1.09023158
 C           -4.14399799       -0.29436134        0.54679700
 C           -1.80836780        2.51897132        0.65682099
 C           -2.92969413        1.80626410        0.22400988
 C            0.21395951        3.75260880       -0.01854600
 C           -1.18119776        3.40533211       -0.21995255
 C            2.04025455        2.64349936       -1.24740329
 C            0.91597433        3.47047945       -1.25781765
 C            3.10939136        0.72999605       -2.35909424
 C            2.43289319        2.01191378       -2.42673453
 C            1.84632206       -1.36751427       -2.44689559
 C            2.29690181       -0.22151168       -3.09660189
 C            0.10011707       -2.99176372       -2.09192322
 C           -1.24746653       -3.07478958       -1.56291856
 C            0.52486249       -1.79191987       -2.64111230
 C           -3.19981207       -1.87017320       -0.91106410
 C           -3.92454059       -0.60977809       -0.85287169
 C           -2.14311859       -2.03698071       -1.80871503
 C           -3.20678503        1.70903811       -1.14065702
 C           -3.55678963        0.41575018       -1.70747732
 C           -1.39212062        3.27025647       -1.65121028
 C           -0.08998392        3.31739632       -2.29936569
 C           -2.35842602        2.38590017       -2.10690844
 C            1.50574268        1.94240826       -3.54300112
 C            1.37020537        0.54121356       -3.91197634
 C            0.17154638        2.49272150       -3.38653390
 C           -0.43702448       -0.89454682       -3.10391229
 C           -1.74986193       -0.96745715       -2.62318995
 C           -2.58591486        0.14163730       -2.74678376
 C           -2.02941068        1.42280413       -3.14943845
 C           -0.03791994        0.20560003       -3.85695500
 C           -0.77732876        1.44928707       -3.74462112
