   70
C70 / DATE: 7/ 1/2024 / Origin: Program Fullerene / C70 from database
 C            1.17087983        0.14788256        4.85717228
 C            2.46795665        0.01081355        4.23146262
 C            2.55418051       -1.33887979        3.70732589
 C            0.37478141       -1.01756442        4.49146913
 C            1.21311393       -1.90075659        3.71250796
 C           -0.85783422       -0.54580581        3.90201849
 C            0.38609075        1.32597001        4.56000544
 C           -0.93722739        0.87620919        4.16506383
 C            0.84749484        2.25329843        3.53791200
 C            2.83860963        0.91826115        3.15818911
 C            2.03915330        2.01972615        2.84536095
 C            3.26869405       -1.28195451        2.44272433
 C            3.39370621        0.11960305        2.07386785
 C            2.91456772       -2.19159528        1.46313366
 C            0.72676536       -2.44291425        2.52632843
 C            1.66853613       -2.92183023        1.62751519
 C           -1.22674964       -1.00388054        2.64088555
 C           -0.53776498       -2.06578410        2.04343111
 C           -2.06146427       -0.21011396        1.85744379
 C           -1.38735897        1.74011391        3.09367647
 C           -0.33112687        2.68919541        2.80225785
 C           -2.05123886        1.18066530        2.01641491
 C           -0.18924141        3.13014487        1.48826761
 C            2.20924460        2.61588829        1.60013493
 C            1.09830595        3.33017039        0.99506441
 C            3.16769361        0.52524840        0.75693596
 C            2.86345978        1.86135327        0.54053028
 C            2.96026544       -1.77395209        0.07600747
 C            2.86489981       -0.42205346       -0.23040316
 C            1.23866475       -3.32610402        0.31385514
 C            2.13751552       -2.71584545       -0.65239515
 C           -0.96917522       -2.52906437        0.78868570
 C           -0.11351221       -3.33459628        0.01779445
 C           -2.61497716       -0.75023898        0.70050855
 C           -2.10864223       -1.95199449        0.20060650
 C           -3.35861069        0.08927015       -0.12955014
 C           -2.22555476        1.97668458        0.89356023
 C           -1.24005231        2.92263648        0.58468230
 C           -3.09439963        1.51410722       -0.08498813
 C           -1.09286238        3.37323050       -0.72714943
 C            1.32698566        3.33039679       -0.43933189
 C            2.27993952        2.26998309       -0.72015828
 C            0.24321351        3.48176628       -1.28662714
 C            2.20092689       -0.04177565       -1.40606376
 C            1.95941173        1.31157320       -1.67388897
 C            1.60277570       -2.34658739       -1.87804961
 C            1.75317534       -1.02384090       -2.30508335
 C           -0.42468167       -3.58096868       -1.31234116
 C            0.49839176       -3.07539957       -2.31605998
 C           -2.59812294       -2.44706232       -1.00809140
 C           -1.76810875       -3.34176776       -1.77914033
 C           -3.60148057       -0.27538272       -1.51332541
 C           -3.24587518       -1.54315915       -1.94517844
 C           -2.98667364        1.99457190       -1.44972219
 C           -1.96915548        2.87665452       -1.77744416
 C           -3.30347891        0.88661035       -2.33834440
 C            0.23747444        2.75323276       -2.54193363
 C            1.10331032        1.67227796       -2.71381185
 C           -1.15045249        2.63167748       -2.95526787
 C            1.17479725       -0.63637358       -3.51284032
 C            0.84614111        0.76013985       -3.72762379
 C           -0.27745956       -2.60933800       -3.44862963
 C           -1.68297840       -2.82428255       -3.13586532
 C           -2.61603904       -1.71579346       -3.24657614
 C            0.10533733       -1.44012969       -4.08904028
 C           -2.60515286        0.73181751       -3.53126936
 C           -1.49691056        1.62312787       -3.84502420
 C           -0.43189978        0.82010192       -4.41857076
 C           -2.25695510       -0.60143144       -3.99827481
 C           -0.92324216       -0.53618282       -4.57473590
