   70
C70 / DATE: 7/ 1/2024 / Origin: Program Fullerene / C70 from database
 C            1.75959997        0.02385343        4.52132094
 C            0.92006975       -1.15854075        4.49349913
 C            1.34654457       -1.98656633        3.37753979
 C            2.61764603       -0.01971044        3.35119737
 C            2.39318640       -1.27577899        2.66634542
 C            2.41302047        1.20002326        2.60226726
 C            0.89364038        1.18245268        4.39062515
 C            1.31143589        1.92423629        3.21325116
 C           -0.46451818       -0.72771533        4.54797977
 C           -0.48101049        0.72764134        4.47229648
 C           -1.40662180       -1.46590408        3.84329971
 C            0.38537822       -2.65524905        2.62937314
 C           -0.95771382       -2.56983938        3.00837592
 C            0.69074683       -3.01785324        1.31809400
 C            2.35941690       -1.27434161        1.27569581
 C            1.67118059       -2.29325349        0.62054864
 C            2.45205462        1.13865941        1.21860543
 C            2.63150798       -0.09111827        0.58227517
 C            1.82479715        2.15088365        0.51209074
 C            0.34256164        2.48323854        2.37940182
 C            0.66626090        2.72541874        1.04362214
 C           -1.43142909        1.36677198        3.68648991
 C           -1.00210832        2.37962178        2.73059749
 C           -2.47556280       -0.78820108        3.12328547
 C           -2.49559639        0.59644696        3.06090600
 C           -1.99523041       -2.79058039        2.01348666
 C           -2.74985615       -1.55240841        1.91691857
 C           -0.26026481       -3.75166844        0.61821414
 C           -1.65943391       -3.45178716        0.84589011
 C           -0.10139335       -3.95491950       -0.80315944
 C            1.76370126       -2.36937915       -0.77215903
 C            0.99134158       -3.29225221       -1.47595556
 C            2.62362579       -0.11367978       -0.81341558
 C            2.36235811       -1.31985629       -1.47495535
 C            2.06152130        2.23782856       -0.85129136
 C            2.53813859        1.09939574       -1.51029241
 C            1.38764936        3.22775844       -1.55811485
 C           -0.31864109        3.20730194        0.17636862
 C            0.06511939        3.60479657       -1.10271203
 C           -2.01143674        2.44189090        1.68797297
 C           -2.82903404        1.24443566        1.80356989
 C           -1.65343809        2.87353127        0.41682207
 C           -2.84204378       -0.89556899        0.68794357
 C           -3.07022482        0.48349612        0.65970554
 C           -2.16054122       -2.92730004       -0.40910016
 C           -1.33002461       -3.50171097       -1.44475983
 C           -2.50136068       -1.58064937       -0.48578410
 C            0.47364472       -2.91728236       -2.77629195
 C           -0.94056311       -2.67232851       -2.56720936
 C            2.31628761       -1.34637615       -2.86929396
 C            1.18183153       -1.98714471       -3.50858066
 C            2.71980456        1.11294895       -2.89067539
 C            2.56811005       -0.12766491       -3.61836840
 C            1.35743360        3.19575689       -3.00489590
 C            2.06405456        2.13276495       -3.68731058
 C           -0.84411835        3.39040275       -2.21918382
 C           -0.04060627        3.11343939       -3.39592885
 C           -2.44678167        2.44949504       -0.64607920
 C           -3.08643651        1.14765450       -0.56178585
 C           -1.98017845        2.62768719       -2.00620926
 C           -2.29145457       -0.87664736       -1.67656103
 C           -1.40745644       -1.36059030       -2.64927999
 C           -2.76086702        0.42199558       -1.77572890
 C           -2.11051825        1.34509970       -2.68771967
 C            0.43768732       -0.90734883       -4.12099215
 C            1.44316706        0.04878909       -4.52856430
 C            1.09878721        1.44948692       -4.53310113
 C           -0.21720825        1.84073971       -4.07028312
 C           -0.73305611       -0.46792006       -3.49469913
 C           -1.07658227        0.89319200       -3.50543371
