   70
C70 / DATE: 7/ 1/2024 / Origin: Program Fullerene / C70 from database
 C            1.34475163       -0.05643264        4.06312214
 C            2.54913074       -0.26500937        3.27752072
 C            2.55617337       -1.66630003        2.87938801
 C            0.50353548       -1.23153216        3.89972873
 C            1.19705793       -2.15170525        3.01996186
 C           -0.82253742       -0.78258421        3.52160293
 C            0.52981135        1.11399389        3.80727094
 C           -0.83022764        0.66919790        3.54542509
 C            1.05761397        2.14137201        3.04462531
 C            2.97103945        0.71584287        2.37564481
 C            2.29151612        1.93094471        2.29834574
 C            3.79659714        0.35278293        1.31461149
 C            3.28745530       -2.04746381        1.76711313
 C            4.11122966       -1.04980496        1.11264558
 C            2.63196616       -2.82579156        0.72660315
 C            0.52643922       -2.63719418        1.90221160
 C            1.24929583       -3.01795145        0.76493990
 C           -1.48408189       -1.42698904        2.48440794
 C           -0.85858834       -2.49335678        1.82675020
 C           -2.54125628       -0.76137335        1.86588067
 C           -1.61064500        1.34599052        2.60890781
 C           -2.60739877        0.63368605        1.92997227
 C            0.16684231        2.92406806        2.21097759
 C           -1.17985700        2.58798556        2.11990127
 C            2.14493787        2.57695191        1.00166208
 C            0.87576508        3.27271430        0.99097641
 C            3.57569044        0.95512810        0.00594157
 C            2.57347006        1.91036395       -0.13872289
 C            4.08566860       -1.31409948       -0.31397290
 C            3.27047926       -2.49398223       -0.53609913
 C            3.72528186       -0.08209908       -0.99529539
 C            2.51840540       -2.55736203       -1.69785084
 C            0.57241770       -3.35746425       -0.41254768
 C            1.18062503       -3.12069092       -1.64446318
 C           -1.53628626       -3.16549242        0.81952113
 C           -0.81165974       -3.50962710       -0.38759106
 C           -3.33613749       -1.44809922        0.95297959
 C           -2.85686591       -2.70954242        0.42703838
 C           -3.92977764       -0.72610596       -0.15725836
 C           -3.50265879        1.31389739        1.10948664
 C           -4.03533569        0.64946594       -0.06815460
 C           -1.91358898        3.22080557        1.12198856
 C           -3.19596373        2.67601771        0.73097886
 C            0.15133390        3.36309105       -0.18978953
 C           -1.21417697        3.63325829       -0.08587108
 C            1.75999178        1.90125863       -1.27923180
 C            0.64991547        2.76199520       -1.34973897
 C            2.81609793       -0.13733648       -2.04076959
 C            2.44922234       -1.38277280       -2.55272395
 C            2.00994987        0.96899376       -2.30037887
 C            0.40050313       -2.50169156       -2.70665205
 C            1.23912811       -1.50253332       -3.34913448
 C           -1.58797143       -3.01760275       -1.51655243
 C           -2.88536986       -2.61562811       -1.02516055
 C           -3.37797882       -1.29958362       -1.37100314
 C           -0.94918884       -2.24436345       -2.47805446
 C           -2.62808349       -0.48947868       -2.22160154
 C           -1.49882141       -1.01561575       -2.87443305
 C           -3.65622409        1.45258912       -1.21693866
 C           -3.30183981        2.76949612       -0.71680979
 C           -2.09573329        3.40483041       -1.21943120
 C           -2.88279819        0.88964762       -2.23154499
 C           -0.10960061        2.83326464       -2.51487240
 C           -1.55161736        2.94442655       -2.40809678
 C           -2.10578310        1.74183831       -3.01105993
 C            1.19792252        0.92757678       -3.42862863
 C            0.65206344       -0.35131790       -3.84359813
 C           -0.79102596       -0.22606506       -3.77836767
 C            0.15317423        1.91019598       -3.59617304
 C           -1.08341985        1.18837154       -3.86955940
