   70
C70 / DATE: 7/ 1/2024 / Origin: Program Fullerene / C70 from database
 C            1.37988146       -0.12575837        4.30673832
 C            2.65995474       -0.32211234        3.65256720
 C            2.60959442       -1.58913085        2.94211067
 C            0.54447156       -1.27487749        4.00514821
 C            1.28299876       -2.14513839        3.10695363
 C           -0.75736406       -0.78923640        3.57411802
 C            0.61362332        1.06999054        4.00722173
 C           -0.72432574        0.66158817        3.60906935
 C            1.22230156        2.12076545        3.33515254
 C            3.13816242        0.68811453        2.72566656
 C            2.51130511        1.92520054        2.67961373
 C            3.09763778       -1.36914724        1.59591731
 C            3.48111278        0.02660747        1.47747310
 C            2.42913759       -1.95891233        0.53085148
 C            0.62053224       -2.63451242        1.98904841
 C            1.29965426       -2.75180853        0.77214538
 C           -1.37391768       -1.42023341        2.49816667
 C           -0.76646320       -2.55518035        1.96813625
 C           -2.26335694       -0.69679054        1.69874047
 C           -1.39064219        1.36744875        2.61238351
 C           -2.33154474        0.69251420        1.82806254
 C            0.41316799        2.96164695        2.47279490
 C           -0.90744852        2.62016878        2.20946419
 C            2.48023378        2.64833176        1.42188276
 C            1.24856226        3.41979634        1.37465375
 C            3.25604517        0.67660033        0.26491349
 C            2.93506809        2.04218447        0.25701731
 C            2.63162222       -1.43339988       -0.74030925
 C            3.03605085       -0.10125930       -0.87757472
 C            2.12111601       -2.12290356       -1.83286693
 C            0.63021990       -3.34324244       -0.30601503
 C            1.09021866       -3.12225759       -1.60557627
 C           -1.44080652       -3.27307086        0.99827484
 C           -0.66994112       -3.80946854       -0.10838671
 C           -2.89758068       -1.34181115        0.62687015
 C           -2.65128062       -2.70388132        0.43966821
 C           -3.51415466       -0.59247412       -0.38863629
 C           -3.14976931        1.41309427        0.97298298
 C           -3.61317252        0.78527758       -0.24612012
 C           -1.53849516        3.29578499        1.17364497
 C           -2.77824743        2.77219030        0.63904863
 C            0.65973979        3.69179618        0.13779563
 C           -0.73255933        3.76790568        0.05634883
 C            2.61997907        2.66760498       -0.94326118
 C            1.38881127        3.43965127       -1.02668462
 C            2.97628090        0.51110528       -2.12545948
 C            2.77363858        1.94187904       -2.18683508
 C            1.78039171       -1.40064166       -3.04883580
 C            2.14730248       -0.07182867       -3.16269096
 C            0.14609825       -3.02622765       -2.71226559
 C            0.42327797       -1.77623836       -3.39780703
 C           -1.57480410       -3.93902278       -1.23809131
 C           -2.83333751       -3.30855240       -0.86710851
 C           -1.17259351       -3.41381013       -2.52852654
 C           -3.50912578       -1.07043073       -1.69788763
 C           -3.25052468       -2.46842439       -1.96450656
 C           -2.22924612       -2.53368436       -2.99746949
 C           -0.56530486       -0.79402458       -3.46752161
 C           -2.82473766       -0.28530702       -2.71197818
 C           -1.89587099       -1.16900595       -3.38212711
 C           -3.15928284        1.61179872       -1.35369518
 C           -2.71325813        2.87022516       -0.81047728
 C           -1.39529807        3.33875302       -1.16532859
 C           -2.43113383        1.00499884       -2.37198705
 C            0.68584380        3.00515966       -2.22486578
 C            1.58605576        2.18134537       -2.99439030
 C            1.11363729        0.90138065       -3.46586698
 C           -0.21847041        0.54332221       -3.27602765
 C           -0.65464873        2.65733140       -2.12355716
 C           -1.10502214        1.41224321       -2.60990772
