   70
C70 / DATE: 7/ 1/2024 / Origin: Program Fullerene / C70 from database
 C            1.26174387        0.06991335        4.38642628
 C            2.58097090       -0.20199426        3.85883984
 C            2.61048750       -1.59972307        3.46480457
 C            0.44137027       -1.11242295        4.16882104
 C            1.23625200       -2.07047786        3.43196771
 C           -0.81625966       -0.67432871        3.60111163
 C            0.52852794        1.20057700        3.85672745
 C           -0.84366478        0.77280529        3.64298987
 C            1.11449526        2.02096955        2.89589091
 C            3.04617639        0.57366152        2.72461789
 C            2.20696146        1.53746459        2.15915765
 C            3.40366347       -1.69804986        2.25290650
 C            3.77135135       -0.34285464        1.86158738
 C            2.99956855       -2.60043775        1.27747467
 C            0.73898854       -2.60258004        2.24469614
 C            1.64395378       -3.13163627        1.32914451
 C           -1.30404657       -1.29407617        2.46731635
 C           -0.55534261       -2.28387525        1.81690505
 C           -2.31532552       -0.64906781        1.77007766
 C           -1.59535004        1.46999582        2.69685460
 C           -2.33428355        0.75150258        1.73674121
 C            0.28614496        2.97715894        2.32134105
 C           -1.14845043        2.75030514        2.39106768
 C            0.56021487        3.42236494        0.97269166
 C            2.31335442        1.82688262        0.79066602
 C            1.35282036        2.61865187        0.16864391
 C            3.90354726       -0.02979124        0.51661817
 C            3.23387497        1.15160142        0.00082311
 C            3.31026139       -2.33313572       -0.11533650
 C            3.77856776       -1.07646273       -0.48504735
 C            1.21557654       -3.39521113       -0.03317825
 C            2.29340345       -2.98990333       -0.92069008
 C           -1.02149381       -2.78374953        0.59796436
 C           -0.10320257       -3.14007142       -0.39715184
 C           -3.00516153       -1.37919188        0.81671881
 C           -2.35031757       -2.54844575        0.25755347
 C           -3.67741415       -0.68433942       -0.25963017
 C           -2.91358237        1.41607635        0.63872244
 C           -3.46987580        0.68047629       -0.41327258
 C           -1.75435995        3.47395319        1.30090516
 C           -0.67560137        3.96018665        0.45109659
 C           -2.69116327        2.77840872        0.44823087
 C           -1.03986479        3.65930987       -0.91351266
 C           -2.43871596        3.26271280       -0.89299560
 C            0.97972768        2.34702862       -1.15890737
 C           -0.15306235        2.95369531       -1.72294667
 C            2.90921242        0.91200032       -1.39240677
 C            3.29091694       -0.45608177       -1.70629242
 C            1.72452305        1.42949180       -1.91403145
 C            1.97480498       -2.48229804       -2.17090608
 C            2.50189991       -1.18849050       -2.58125456
 C           -0.40794827       -2.93951076       -1.75032406
 C            0.59943936       -2.56300073       -2.63119549
 C           -2.75366986       -2.66175829       -1.12703894
 C           -3.63128007       -1.54410756       -1.42937974
 C           -1.72138096       -2.70918609       -2.13864578
 C           -3.21468334       -0.97379688       -2.69575032
 C           -1.99403750       -1.65857643       -3.11110345
 C           -3.54191743        1.23885423       -1.69437698
 C           -2.92830916        2.53076004       -1.96046683
 C           -3.31845531        0.39823971       -2.86400263
 C           -0.63406738        2.49186986       -2.94370443
 C           -2.07231640        2.36963320       -3.12196983
 C           -2.34653918        1.06690180       -3.70326214
 C            1.15509789        0.82186379       -3.03614845
 C            1.45800248       -0.50512273       -3.32358611
 C            0.36551451       -1.44233664       -3.52435943
 C           -0.92702953       -0.94197615       -3.66576371
 C           -0.01727988        1.33819079       -3.56668747
 C           -1.07596353        0.41456138       -3.95277606
