   70
C70 / DATE: 7/ 1/2024 / Origin: Program Fullerene / C70 from database
 C            1.24191176       -0.00365287        5.54319372
 C            0.34957096       -1.13982850        5.67823549
 C            1.01826625       -2.28948085        5.09811451
 C            2.37939167       -0.41657699        4.73407603
 C            2.24151759       -1.82566270        4.45970558
 C            2.46948078        0.49182583        3.60671297
 C            0.53458232        1.02072721        4.79805450
 C            1.42302725        1.48542249        3.75456349
 C           -0.83859198       -0.86860136        4.88224355
 C           -0.75043172        0.49038550        4.38533237
 C            0.15960162       -2.81185218        4.05181781
 C           -0.98784455       -1.93611643        3.91287695
 C            2.20125021       -2.24937140        3.07296478
 C            0.98297236       -3.01241083        2.87878501
 C            2.71263143        0.00114446        2.32041901
 C            2.57841882       -1.37038316        2.05336404
 C            2.52632694        0.89254194        1.26015379
 C            0.85375843        1.95747537        2.58384432
 C            1.65730063        1.97360476        1.45329510
 C           -1.15320826        0.74359625        3.07735407
 C           -0.51239396        1.76510670        2.38063629
 C           -1.38298322       -1.60486818        2.62008885
 C           -1.73469314       -0.28445304        2.33241156
 C            0.37853031       -2.90010723        1.63802364
 C           -0.91932468       -2.39443524        1.57072314
 C            2.26759434       -1.75199053        0.74524014
 C            1.20551553       -2.64454883        0.55409043
 C            2.77318039        0.45073258       -0.03966001
 C            2.63973210       -0.91310337       -0.30521752
 C            2.67678490        1.37998769       -1.07358648
 C            1.16724122        2.65378462        0.34425848
 C            1.88820711        2.57240024       -0.84040299
 C           -1.02026776        2.11887708        1.13718574
 C           -0.20940413        2.87699004        0.29687611
 C           -2.15764568        0.00982888        1.03353341
 C           -2.00041663        1.30923987        0.55897957
 C           -1.43876974       -2.15899497        0.30422868
 C           -2.22871933       -1.02470889        0.10451156
 C            0.63769522       -2.75919387       -0.70970877
 C           -0.75376559       -2.68743337       -0.78658223
 C            2.40913342       -1.35571188       -1.60625506
 C            1.40377105       -2.37941851       -1.80458535
 C            2.42461866        0.94328722       -2.43655542
 C            2.29272580       -0.40478351       -2.69902831
 C            1.26028020        2.95352781       -2.09201142
 C            1.49886955        1.88163505       -3.04839064
 C           -0.78852498        3.40618005       -0.84724132
 C            0.01159823        3.55301781       -2.05205857
 C           -2.44783395        1.62302733       -0.72601016
 C           -2.06739266        2.85988716       -1.25091913
 C           -2.67978393       -0.74873458       -1.18785201
 C           -2.84005535        0.58703973       -1.58797920
 C           -1.37953548       -2.63511699       -2.02356149
 C           -2.51827938       -1.74937153       -2.14842401
 C            0.76164566       -2.14338535       -3.08444374
 C            1.23088416       -0.85767874       -3.58176537
 C           -0.57764249       -2.47016235       -3.22485466
 C            0.44689968        1.42436756       -3.84638896
 C            0.31258121        0.05129821       -4.11374807
 C           -0.87774260        3.37728207       -3.18660009
 C           -2.21418399        3.13628400       -2.66358293
 C           -0.59622878        2.31072562       -4.12879677
 C           -3.23555173        0.88096759       -2.89883974
 C           -2.83494293        2.13664522       -3.50143452
 C           -1.88625402        1.81006983       -4.55628363
 C           -2.66265285       -1.44811175       -3.55624506
 C           -1.37663058       -1.72243896       -4.17959234
 C           -0.86677330       -0.45486013       -4.66727858
 C           -3.05486839       -0.11165443       -3.93922083
 C           -2.02415998        0.40028972       -4.83078932
