   70
C70 / DATE: 7/ 1/2024 / Origin: Program Fullerene / C70 from database
 C            1.00513860       -0.17183988        4.93306422
 C            2.27073883       -0.42433272        4.26768608
 C            2.17984231       -1.72409272        3.62530108
 C            0.15274934       -1.33050481        4.71407262
 C            0.80830475       -2.17822863        3.73933730
 C           -1.17941996       -0.85325797        4.42739482
 C            0.23970191        1.01202241        4.57899747
 C           -1.13895794        0.60199892        4.40040497
 C            0.77906200        1.94828031        3.70455097
 C            2.74954508        0.52214477        3.27725836
 C            2.10037693        1.73898574        3.12347120
 C            2.74964781       -1.60766718        2.29439064
 C            3.13868155       -0.22398237        2.08925499
 C            2.12982646       -2.26858052        1.24473157
 C            0.14789548       -2.54695959        2.56931765
 C            0.92631459       -2.94063402        1.48506067
 C           -1.82732518       -1.29099509        3.20626790
 C           -1.18147540       -2.16132931        2.33453495
 C           -1.85958866        1.03689370        3.21509944
 C           -2.49186354       -0.13852571        2.64334561
 C           -0.06565071        2.54975162        2.67896822
 C           -1.28783694        1.97365957        2.35057020
 C            2.10115615        2.36595136        1.81757305
 C            0.80794631        3.00087497        1.61752470
 C            2.95621598        0.34740528        0.82733981
 C            2.69040561        1.71766902        0.73648866
 C            2.41442716       -1.84148402       -0.04849434
 C            2.69311339       -0.48913403       -0.27049050
 C            2.01709580       -2.64854833       -1.10273294
 C            0.28392097       -3.55973321        0.42250611
 C            0.95989677       -3.60946988       -0.85807666
 C           -1.70129506       -2.29185158        1.04231856
 C           -1.10155366       -3.20261606        0.17883276
 C           -2.75094860       -0.12425371        1.28469156
 C           -2.49895940       -1.26528917        0.51692271
 C           -1.73459150        2.01410656        1.02536816
 C           -2.72444436        1.10680649        0.65026391
 C            0.32543334        3.09374385        0.31836421
 C           -0.96866065        2.64671495        0.03035006
 C            2.46960144        2.27480833       -0.51320151
 C            1.27396056        3.08480433       -0.69384350
 C            2.55028749        0.06296185       -1.55155130
 C            2.60337393        1.44554522       -1.69151422
 C            1.78218747       -2.05937682       -2.40307283
 C            2.09755228       -0.72170467       -2.62238468
 C           -0.04305774       -3.44448963       -1.89315071
 C           -1.28086438       -3.05530126       -1.25512768
 C            0.50742397       -2.56268875       -2.89705469
 C           -2.73882122       -1.19183979       -0.86133249
 C           -1.95189945       -1.94189607       -1.74104552
 C           -3.26137750        1.17695843       -0.61930817
 C           -3.41848835       -0.07251025       -1.33961046
 C           -1.41547426        2.61508251       -1.30117202
 C           -2.69890010        2.12774965       -1.54988319
 C            0.84993143        2.93864055       -2.06685737
 C            1.82792218        2.08985043       -2.73245805
 C           -0.49991764        2.77597423       -2.35642090
 C            1.52841198       -0.10988182       -3.74357144
 C            1.42228817        1.33833724       -3.81973726
 C           -0.33422179       -1.66669632       -3.54046161
 C           -1.60915232       -1.42515894       -3.00114366
 C            0.29538397       -0.66747383       -4.27357074
 C           -3.37767904        0.24168123       -2.75375971
 C           -3.06914174        1.66077141       -2.87107053
 C           -2.44330972       -0.47697922       -3.59285893
 C           -0.83279795        2.39886306       -3.65924732
 C            0.14495868        1.65791768       -4.43665021
 C           -0.48074331        0.41152565       -4.84512423
 C           -2.12520102        1.81506942       -3.94968355
 C           -1.88710159        0.49575714       -4.51596225
