   70
C70 / DATE: 7/ 1/2024 / Origin: Program Fullerene / C70 from database
 C            1.32169044        0.04228714        4.43263392
 C            2.55848891       -0.17725657        3.71963596
 C            2.51742200       -1.52181718        3.16362125
 C            0.48637530       -1.13604484        4.24960325
 C            1.16700269       -2.01746279        3.31679021
 C           -0.85314187       -0.67393953        3.91873346
 C            0.51458085        1.19335255        4.08238049
 C           -0.87036524        0.75962355        4.13889805
 C            0.91305749        2.04536587        3.04900955
 C            2.89945063        0.71902779        2.63346446
 C            1.97567110        1.67857485        2.21106094
 C            3.07930662       -1.45316313        1.82939313
 C            3.56959188       -0.09886292        1.64185812
 C            2.41471594       -2.07035784        0.77288332
 C            0.47845368       -2.44881833        2.18939026
 C            1.16688334       -2.67299042        0.99118996
 C           -1.47820460       -1.19516374        2.79001775
 C           -0.90556333       -2.29982562        2.15909962
 C           -2.40657822       -0.41855356        2.08841348
 C           -1.82136567        1.52473403        3.48491075
 C           -2.65296693        0.89335093        2.46991406
 C           -0.00579607        2.99358033        2.60872738
 C           -1.40529212        2.81139070        2.96076412
 C            0.04161705        3.44970178        1.23113873
 C            2.01087718        2.11854900        0.88082240
 C            0.96177019        2.87492775        0.35875453
 C            3.66986877        0.38562920        0.35062715
 C            2.98104294        1.62049545        0.01801195
 C            2.80119377       -1.74045719       -0.52563417
 C            3.44932251       -0.53032846       -0.75506367
 C            2.20479852       -2.38813421       -1.59685033
 C            0.48052688       -3.25362868       -0.08003036
 C            1.04292225       -3.22203870       -1.35535957
 C           -1.61479371       -2.92154222        1.14398350
 C           -0.87341024       -3.55019920        0.06769746
 C           -2.81992921       -0.83589711        0.82694132
 C           -2.70829743       -2.18883364        0.53767141
 C           -2.90819031        0.10431629       -0.21221379
 C           -2.92562834        1.87342016        1.43491685
 C           -2.20284482        3.08565528        1.78233082
 C           -1.32737213        3.67039656        0.78814141
 C           -2.94716623        1.46994609        0.09943044
 C           -1.62876926        3.44596763       -0.54194827
 C           -2.59111330        2.40255474       -0.87199370
 C            0.70547349        2.87292375       -1.02022353
 C           -0.53680593        3.30378091       -1.48108245
 C            2.71340334        1.59571868       -1.40723012
 C            3.06548258        0.27198932       -1.90222123
 C            1.57306968        2.21645717       -1.90240356
 C            1.98846550       -1.66116983       -2.84055340
 C            2.29324563       -0.29859735       -2.90911080
 C            0.18976008       -3.14935999       -2.53514672
 C            0.77244655       -2.18248510       -3.45190520
 C           -1.74276889       -3.55822679       -1.09606979
 C           -2.84237161       -2.64320845       -0.82700232
 C           -1.19011807       -3.21522890       -2.39149669
 C           -2.80163463       -0.30291956       -1.55379152
 C           -2.86158606       -1.65599103       -1.88163873
 C           -2.02294354       -2.16236384       -2.95321866
 C           -2.28696892        1.95638458       -2.21733394
 C           -1.10541199        2.68659805       -2.65960326
 C           -2.41480966        0.61039796       -2.53913435
 C            1.12784028        1.84383511       -3.17259326
 C            1.52387382        0.54751200       -3.70397919
 C           -0.25082283        2.08758024       -3.56813476
 C           -0.05524137       -1.33262215       -4.17347830
 C           -1.47245905       -1.25562655       -3.84579538
 C           -1.81335174        0.14970797       -3.71067758
 C            0.40480288        0.01269576       -4.45777651
 C           -0.72041145        0.91468623       -4.28216638
