   70
C70 / DATE: 7/ 1/2024 / Origin: Program Fullerene / C70 from database
 C            1.46130207        0.13962471        4.93158623
 C            0.69480427       -1.08965061        4.94445813
 C            1.48971274       -2.11002726        4.28602049
 C            2.61789688       -0.07155918        4.07460326
 C            2.63428775       -1.45832922        3.67020701
 C            2.57683239        0.93489095        3.03893593
 C            0.63758734        1.16616805        4.31374901
 C            1.42526223        1.78212416        3.27566083
 C           -0.62915980       -0.79403729        4.42120601
 C           -0.62458175        0.57499352        3.92819159
 C           -1.28024890       -1.75893803        3.67145480
 C            0.85309755       -2.92635183        3.27180319
 C           -0.53167794       -2.90983647        3.17112261
 C            2.61222137       -1.76810138        2.24902948
 C            1.63671250       -2.81984029        2.04812915
 C            2.83700950        0.58511926        1.71662299
 C            2.69106866       -0.74586137        1.30561729
 C            2.58766797        1.56528762        0.76908748
 C            0.78070898        2.25833932        2.14598084
 C            1.58692157        2.49844874        1.04797119
 C           -1.12573486        0.85133268        2.65194232
 C           -0.53518965        1.86401989        1.88384369
 C           -2.15789567       -1.32498176        2.60065216
 C           -1.98772106       -0.06255352        2.03926446
 C           -1.12384432       -3.27798898        1.90218623
 C           -2.31081217       -2.46057812        1.71984285
 C            0.97811882       -2.90416675        0.82359353
 C           -0.29619793       -3.47553820        0.80070602
 C            2.25586189       -1.00541719       -0.00128560
 C            1.37590079       -2.07127477       -0.23467069
 C            2.81996296        1.25347910       -0.55991753
 C            2.43901089       -0.02422656       -0.98497920
 C            2.77501473        2.31643438       -1.44892509
 C            1.02909917        3.18414942       -0.01754188
 C            1.86019778        3.38911072       -1.11378345
 C           -1.05639855        2.15875222        0.61948385
 C           -0.35055252        3.04086813       -0.20651474
 C           -2.37924336        0.13530397        0.71426711
 C           -2.03145705        1.32294271        0.05881833
 C           -2.73116052       -2.24453600        0.41850310
 C           -2.95074953       -0.92696025       -0.00036781
 C           -0.92650872       -3.63511779       -0.42326803
 C           -2.29940842       -3.17743782       -0.51879961
 C            0.72872952       -2.18130077       -1.46790349
 C           -0.26315113       -3.14523350       -1.61291919
 C            1.85343988       -0.19948907       -2.24889675
 C            0.84691100       -1.15265379       -2.40782956
 C            2.62122178        2.03943147       -2.85470625
 C            1.98800532        0.79364275       -3.22144539
 C            1.31543052        3.92171620       -2.34114597
 C            1.86029150        3.13400143       -3.43556676
 C           -0.94448380        3.45972800       -1.39148906
 C           -0.12227107        3.95773884       -2.48474112
 C           -2.53137305        1.58861208       -1.22563753
 C           -1.98283658        2.63352863       -1.97200134
 C           -3.42697729       -0.70344107       -1.28797025
 C           -3.13900245        0.55760825       -1.94245450
 C           -2.58043142       -2.95977820       -1.91889112
 C           -1.29766283       -2.95869183       -2.61066959
 C           -3.28185310       -1.74974143       -2.28751163
 C           -0.16974239       -0.91704950       -3.34725846
 C           -2.63582504        0.25971450       -3.27834065
 C           -1.25404657       -1.77659671       -3.43934937
 C           -2.56984675       -1.17893860       -3.41256377
 C            0.83702079        1.11497642       -4.05031142
 C            0.74257608        2.55979747       -4.15739037
 C           -0.46226511        3.19779971       -3.67637527
 C           -1.57946704        2.34551264       -3.33865751
 C           -0.31930094        0.36731946       -3.86580369
 C           -1.56080794        1.01370767       -3.72665747
