   70
C70 / DATE: 7/ 1/2024 / Origin: Program Fullerene / C70 from database
 C            1.49919937       -0.04259130        4.81332333
 C            0.70207085       -1.23960920        4.66800534
 C            1.24243167       -2.02588031        3.56734380
 C            2.61293762       -0.15747515        3.89722843
 C            2.40646610       -1.33248624        3.06335601
 C            2.73141804        1.11832661        3.23039028
 C            0.68241210        1.07324445        4.35937605
 C            1.42153600        1.74887793        3.31650602
 C           -0.67586495       -0.81036584        4.56289790
 C           -0.63092409        0.55039046        4.04699048
 C           -1.54445294       -1.68937633        3.95129197
 C            0.33366516       -2.58781523        2.67981021
 C           -0.95567704       -2.76738965        3.17258267
 C            0.52064148       -2.42220436        1.29431640
 C            2.59080839       -1.19713335        1.69181659
 C            1.64099634       -1.72464455        0.80535276
 C            3.34473420        1.11542064        1.99454066
 C            3.39983099       -0.14744511        1.26821948
 C            2.89937504        2.08725695        1.02456459
 C            0.77423960        2.09683444        2.13130427
 C            1.56672459        2.49759083        1.05503913
 C           -1.19731307        0.81794515        2.79723691
 C           -0.53239993        1.64933462        1.88362787
 C           -2.56096348       -1.13897295        3.08650942
 C           -2.25652941        0.01641812        2.35912513
 C           -1.98959172       -3.23942698        2.28676703
 C           -3.09455514       -2.29583930        2.40280248
 C           -0.47722164       -2.84368904        0.39765850
 C           -1.68274831       -3.35491905        0.88150170
 C           -0.39091686       -2.48649300       -0.95272717
 C            1.76017594       -1.47328148       -0.57265379
 C            0.82585777       -2.02351225       -1.45591920
 C            3.46001180        0.18375809       -0.13962396
 C            3.45360559        1.63401695       -0.22954296
 C            2.69248069       -0.53542003       -1.04472063
 C            2.96368744        2.20726951       -1.38431215
 C            0.96037707        2.87519293       -0.14206149
 C            1.76869555        3.02319262       -1.27169560
 C           -1.10071557        1.88536987        0.63042769
 C           -0.41231883        2.67130616       -0.29876221
 C           -2.77208931        0.19050501        1.06788833
 C           -2.23790320        1.17384081        0.23228023
 C           -3.64000433       -2.11495656        1.08423685
 C           -2.90342061       -2.99972344        0.19665038
 C           -3.57381831       -0.79707423        0.49024898
 C           -1.56150611       -2.30347550       -1.71073598
 C           -2.78581429       -2.31245320       -1.06498392
 C           -3.45166020       -1.03392151       -0.93135793
 C           -1.48698322       -1.51320350       -2.85025992
 C            0.92346094       -1.75194383       -2.82193431
 C           -0.30362527       -1.56070360       -3.56880246
 C            2.55910925       -0.01630405       -2.33203874
 C            2.75270045        1.35178764       -2.53360716
 C            1.86457955       -0.74930111       -3.28056675
 C            1.16774968        3.07183748       -2.59203364
 C            1.86011802        2.08269830       -3.41572695
 C           -1.02466077        2.99068323       -1.50998041
 C           -0.20647362        3.22156411       -2.69129870
 C           -2.62673898        1.19418225       -1.11122681
 C           -2.97372003       -0.00789117       -1.72629846
 C           -2.29421458       -0.36573275       -2.88854740
 C           -2.19575740        2.23937419       -1.92012619
 C           -0.90029592        2.67104009       -3.84043703
 C           -2.06609905        0.63607510       -3.82509234
 C           -2.09718201        2.00871979       -3.35522144
 C           -0.05817470       -0.59954108       -4.62420258
 C            1.27555772       -0.06334933       -4.42302314
 C            1.17548799        1.38594812       -4.40241324
 C           -0.97226456        0.51292237       -4.76881211
 C           -0.19854357        1.74262075       -4.71047111
