   70
C70 / DATE: 7/ 1/2024 / Origin: Program Fullerene / C70 from database
 C            1.10408928       -0.13394239        4.57685170
 C            2.35123375       -0.42659453        3.90799555
 C            2.22915726       -1.74845644        3.31272736
 C            0.26171140       -1.31414094        4.45169604
 C            0.83773298       -2.13345551        3.40609570
 C           -1.09686443       -0.85334303        4.29480227
 C            0.31886963        0.99336011        4.11254391
 C           -1.05969643        0.60144396        4.28811833
 C            0.69104912        1.65470154        2.93816851
 C            2.79783696        0.46713677        2.86021126
 C            2.01831421        1.56224565        2.49302505
 C            2.83320340       -1.68934096        1.99635428
 C            3.36988754       -0.35648075        1.80938977
 C            2.17465108       -2.26647555        0.92486498
 C            0.13417304       -2.35252342        2.22166525
 C            0.84709676       -2.69006922        1.07055921
 C           -1.83802761       -1.25988375        3.11650907
 C           -1.19997243       -1.94836951        2.09225400
 C           -2.01653604        1.04295910        3.30592051
 C           -2.67242806       -0.13593555        2.76200370
 C           -0.29826912        2.22812622        2.11289500
 C           -1.65934280        2.04447109        2.41419727
 C            0.07499126        2.87613288        0.92456777
 C            2.40136425        2.24096539        1.34628932
 C            1.42337131        3.01916591        0.61807789
 C            3.41953065        0.16486873        0.51777195
 C            3.21959324        1.53774664        0.36857696
 C            2.63752183       -1.95706535       -0.34699920
 C            3.18291506       -0.68572835       -0.57164634
 C            2.14898893       -2.71433054       -1.40486834
 C            0.14369162       -3.08229636       -0.06767761
 C            0.88814752       -3.40025706       -1.20364615
 C           -1.77351048       -1.92798899        0.82263190
 C           -1.19911153       -2.70055091       -0.18440376
 C           -3.17030968       -0.04101862        1.46770594
 C           -2.78083862       -0.99493525        0.51165515
 C           -2.60962766        2.32869364        1.44427321
 C           -3.48777040        1.24337242        1.03887854
 C           -0.88192488        3.20257928       -0.04179244
 C           -2.22788582        3.04590213        0.24927517
 C           -0.50302020        3.36162110       -1.37593512
 C            1.84565616        3.05745855       -0.77306066
 C            2.92425528        2.09532248       -0.93958842
 C            0.88512576        3.19677828       -1.76302270
 C            3.19853212       -0.15456405       -1.86085804
 C            2.94727564        1.26357094       -2.05028010
 C            2.15019856       -2.17450947       -2.75342481
 C            2.53868304       -0.85950808       -2.94483960
 C            0.24400065       -3.52395528       -2.49355380
 C            0.94553792       -2.64533051       -3.41596567
 C           -1.87577224       -2.82395732       -1.39163663
 C           -1.16597190       -3.22819798       -2.59046653
 C           -3.22188023       -0.86095350       -0.81709926
 C           -2.78447803       -1.76727265       -1.77775846
 C           -3.85454255        1.45952806       -0.33928509
 C           -3.13482299        2.63163093       -0.80923375
 C           -3.62516693        0.38961566       -1.28074789
 C           -1.31992382        2.77825723       -2.42981320
 C           -2.58953279        2.32515095       -2.12004569
 C           -2.94456826        0.95172394       -2.43615812
 C            0.91483205        2.33296775       -2.93547316
 C            1.92928332        1.40029916       -3.08202263
 C            1.60093178        0.06859918       -3.55857398
 C           -0.45204452        1.94000456       -3.23432088
 C           -0.01166979       -1.66549337       -3.89932850
 C           -1.32709281       -2.16423343       -3.56984727
 C           -2.29802753       -1.23525788       -3.04256312
 C           -2.05930368        0.13141991       -3.13147508
 C            0.26808987       -0.31210936       -3.72583074
 C           -0.76158994        0.59070569       -3.41530978
