   70
C70 / DATE: 7/ 1/2024 / Origin: Program Fullerene / C70 from database
 C            1.30104489        0.07524474        4.47291091
 C            2.54540084       -0.28507589        3.83528596
 C            2.54412922       -1.72613041        3.64994755
 C            0.45068527       -1.10548082        4.50666426
 C            1.22196117       -2.22479646        4.00369223
 C           -0.80296543       -0.76514439        3.85175504
 C            0.52445541        1.14503747        3.88861984
 C           -0.84367321        0.67814327        3.75044995
 C            1.05624049        1.90750734        2.85225636
 C            2.87318154        0.33019580        2.56049635
 C            2.07798354        1.36515322        2.05695324
 C            3.07809544       -2.00330446        2.32526375
 C            3.29420742       -0.72922683        1.66017478
 C            2.55724452       -3.06331032        1.59840803
 C            0.60041236       -3.13267607        3.15769844
 C            1.38937606       -3.75939223        2.11277260
 C           -1.23876748       -1.52827290        2.77390127
 C           -0.70038633       -2.79969347        2.58540424
 C           -1.92693131       -0.90144816        1.72919997
 C           -1.61988899        1.26662962        2.76222394
 C           -2.29511830        0.44405744        1.85675921
 C            0.18936571        2.83109649        2.28590315
 C           -1.23356076        2.53770854        2.34705027
 C            0.45686200        3.34297398        0.96058156
 C            2.08764341        1.60173432        0.67352789
 C            1.33423638        2.65175240        0.13468094
 C            3.00507012       -0.59192081        0.30927979
 C            2.71635771        0.68088175       -0.17079036
 C            2.39051194       -2.92460751        0.16103577
 C            2.65495840       -1.70726273       -0.46205916
 C            0.50511544       -4.03123346        0.99633714
 C           -0.78015842       -3.41970994        1.27727125
 C            1.18857556       -3.63999329       -0.22221321
 C           -2.12980915       -1.57864047        0.51655807
 C           -1.40725222       -2.74106744        0.24379857
 C           -2.83519900       -0.96622674       -0.52651581
 C           -3.07810318        1.03608598        0.87108742
 C           -3.35542458        0.31002714       -0.35249314
 C           -1.86237862        3.13937990        1.18667402
 C           -0.81311666        3.79992462        0.42435668
 C           -2.85446857        2.43158689        0.52278819
 C           -0.94124599        3.92648473       -0.94913549
 C            1.23008477        2.81227568       -1.25108121
 C            0.19697706        3.58580707       -1.78220849
 C            2.68900495        0.86650752       -1.54315720
 C            1.97088150        1.99468965       -2.09749204
 C            2.14806355       -1.50234002       -1.74951632
 C            2.42463383       -0.28972814       -2.37681807
 C            0.42813271       -3.10769759       -1.25328674
 C           -0.94446101       -2.95162407       -1.05032062
 C            1.06253549       -2.27767591       -2.17600468
 C           -2.70216459       -1.45608746       -1.82627869
 C           -1.72293406       -2.49368060       -2.10048807
 C           -2.68677415       -0.52061465       -2.94218624
 C           -3.30986277        1.25451070       -1.46038819
 C           -2.98943647        2.56710039       -0.91790194
 C           -2.13012440        3.40997231       -1.61113314
 C           -2.78410480        0.84381208       -2.68532711
 C           -0.32233075        3.27542455       -3.10214762
 C           -1.75713736        3.06856159       -2.97031252
 C           -2.05748837        1.74037041       -3.47311048
 C            1.41731173        1.58036830       -3.37964595
 C            1.63386526        0.14844932       -3.51420101
 C            0.22859256        2.14400802       -3.82534413
 C           -0.88069184        1.28034740       -4.19825553
 C            0.36520609       -1.93754834       -3.33254392
 C           -1.06651220       -2.17050087       -3.35373884
 C           -1.70921208       -0.99319430       -3.90724269
 C            0.61452045       -0.66478598       -3.98657788
 C           -0.67124175       -0.08371792       -4.35185213
