   70
C70 / DATE: 7/ 1/2024 / Origin: Program Fullerene / C70 from database
 C            1.56833540        0.07276085        5.31955605
 C            0.76175543       -1.11971135        5.14299235
 C            1.65496060       -2.15123299        4.66618850
 C            2.76222423       -0.09075130        4.50399610
 C            2.85112615       -1.48745122        4.15578066
 C            2.69724703        0.89054030        3.43599091
 C            0.82455424        1.18692006        4.76832308
 C            1.69975257        1.86760216        3.83600862
 C           -0.39618325       -0.76129017        4.33330947
 C           -0.44160695        0.68726542        4.25672218
 C           -0.71555321       -1.50717428        3.19729106
 C            1.17715796       -3.03344805        3.62431316
 C           -0.08022865       -2.72674135        2.96111508
 C            2.97623658       -1.84620055        2.75843281
 C            2.19133470       -3.04594362        2.58754111
 C            2.74939154        0.48718661        2.09460920
 C            2.89959511       -0.86793658        1.76261107
 C            2.33348125        1.39454055        1.10867990
 C            1.09306845        2.60472121        2.83897197
 C            1.64991576        2.54056163        1.50294953
 C           -0.94836755        1.28057367        3.10602759
 C           -0.34182801        2.45038401        2.66256523
 C           -1.39952527       -0.89135876        2.14594696
 C           -1.61549438        0.49031144        2.16878180
 C           -1.60975032       -1.59777410        0.95611547
 C            0.07739729       -3.17445425        1.59016186
 C            1.50186176       -3.21013860        1.33059913
 C           -0.72104110       -2.61151727        0.60087408
 C            2.61614337       -1.27470651        0.45700836
 C            1.93690899       -2.48322521        0.23892489
 C            2.26180417        0.99391502       -0.23185728
 C            2.60799871       -0.31740312       -0.55853835
 C            1.55851764        1.78544001       -1.16032785
 C            0.62465833        3.07194454        0.63407682
 C           -0.63844931        2.92176039        1.32800458
 C            0.63962849        2.73531243       -0.70600925
 C           -2.16890223        1.09930568        1.04162879
 C           -1.67794284        2.34098341        0.61847019
 C           -2.37432414       -1.01694040       -0.05463338
 C           -2.82293816        0.29585412        0.11037176
 C           -2.27342260       -1.54563960       -1.34429486
 C           -0.23691213       -2.62449896       -0.71008199
 C            1.14916195       -2.57339035       -0.89639701
 C           -1.08563008       -2.17555384       -1.72252473
 C            2.41698034       -0.76471768       -1.86124458
 C            1.65220919       -1.98288333       -2.03820739
 C            1.51853036        1.41929161       -2.51212327
 C            1.98749082        0.16512796       -2.88824631
 C            0.64525275        2.09709248       -3.36811564
 C           -0.54881160        2.89311259       -1.41093821
 C           -1.75250910        2.64571180       -0.73902401
 C           -0.48277681        2.80558518       -2.79235853
 C           -3.44902076        0.93112950       -0.95866492
 C           -2.85114040        2.16139627       -1.43785675
 C           -3.17325904       -1.12545330       -2.31547323
 C           -3.83280302        0.14637402       -2.11672925
 C           -2.79130318       -1.20765845       -3.71196961
 C           -0.58073605       -1.99779854       -3.01594685
 C            0.78421606       -1.80292741       -3.17722187
 C            1.25017487       -0.61782916       -3.87195504
 C           -1.42446624       -1.56423769       -4.03358453
 C            0.18201313        1.45129219       -4.58727581
 C            0.37983058        0.02285391       -4.74115534
 C           -0.92243581       -0.58145560       -4.98259018
 C           -1.66879404        2.47365136       -3.56040301
 C           -2.83374488        2.12194123       -2.88896779
 C           -3.59977389        0.95546369       -3.30151600
 C           -3.07824803        0.07735100       -4.33306033
 C           -1.23928502        1.72882578       -4.73416152
 C           -1.90370776        0.48535947       -5.08148563
