   70
C70 / DATE: 7/ 1/2024 / Origin: Program Fullerene / C70 from database
 C            1.26138931       -0.18407953        4.36704153
 C            2.55083538       -0.53499184        3.82059799
 C            2.48588214       -1.91824220        3.37081986
 C            0.41975553       -1.36902210        4.32963161
 C            1.14528152       -2.41187838        3.63076030
 C           -0.88562195       -0.96681931        3.83490094
 C            0.52045509        0.89847071        3.75270813
 C           -0.85687886        0.47282063        3.61685333
 C            1.07940590        1.63493840        2.71865772
 C            3.07759669        0.25155750        2.72188828
 C            2.36202824        1.34147374        2.22607773
 C            3.00340153       -1.95784627        2.01219189
 C            3.65695697       -0.68274286        1.77803383
 C            2.22906434       -2.52580740        1.00005560
 C            0.49229576       -3.13055663        2.63991602
 C            1.13404088       -3.30942650        1.34523696
 C           -1.55672471       -1.76951401        2.91595697
 C           -0.92517012       -2.89936570        2.39480273
 C           -2.61658308       -1.20413445        2.21624125
 C           -1.63522585        1.00869719        2.59159826
 C           -2.70020524        0.24563124        2.13061832
 C            0.22681834        2.42140940        1.95601736
 C           -1.10053389        2.00579102        1.76349830
 C            0.80651748        3.33878116        1.09671875
 C            2.76530374        1.89109437        1.00354859
 C            2.07560180        2.98813776        0.49448208
 C            3.83952421       -0.26532934        0.47191067
 C            3.50732817        1.10702060        0.11885387
 C            2.36311616       -2.06338453       -0.31251020
 C            3.33669924       -1.10557275       -0.59751505
 C            1.40552540       -2.38603403       -1.28424008
 C            0.08779214       -3.53846550        0.37077954
 C           -1.19323203       -3.31069285        1.02498768
 C            0.25588891       -3.10483421       -0.93707829
 C           -3.01271384       -1.74805656        0.92580937
 C           -2.21964394       -2.70699011        0.30424371
 C           -3.33147001        0.58121455        0.87242697
 C           -3.57623902       -0.65585959        0.14682473
 C           -1.83011749        2.44919826        0.64678887
 C           -2.90875662        1.69861079        0.16685243
 C           -0.00241608        3.98371858        0.08857230
 C           -1.35190718        3.50744464       -0.12246963
 C            1.90466240        3.10282125       -0.94524294
 C            0.70583315        3.87474846       -1.17894753
 C            3.16713135        1.12019007       -1.29726872
 C            3.19129064       -0.25618684       -1.76477067
 C            2.18081461        1.99801327       -1.74295782
 C            1.51590747       -1.83544333       -2.56276531
 C            2.31899870       -0.64216409       -2.76259162
 C            0.33478763       -1.69896843       -3.39719047
 C           -0.88565005       -3.01065510       -1.72875280
 C           -2.16356716       -2.74748448       -1.08597376
 C           -0.85285350       -2.28288164       -2.98430666
 C           -3.46087347       -0.65401410       -1.23964812
 C           -2.85855237       -1.74097252       -1.87449943
 C           -2.10379197       -1.55146269       -3.10799544
 C           -3.27729618        1.79065584       -1.17505078
 C           -3.56626093        0.56560903       -1.90577122
 C           -1.55935255        3.48630949       -1.55741941
 C           -0.23976908        3.40355658       -2.16384564
 C           -2.57356430        2.69542500       -2.07043058
 C            1.25721597        1.57614216       -2.71312652
 C            1.45971491        0.35881045       -3.36477955
 C            0.33022132       -0.34740353       -3.94007959
 C            0.07612255        2.29805019       -2.95062378
 C           -2.12232402       -0.31693705       -3.74236679
 C           -3.01894959        0.70597059       -3.24278303
 C           -2.32621900        1.98122313       -3.31074371
 C           -0.86814549        0.32894628       -4.10367707
 C           -0.95059597        1.72173813       -3.69948224
