   70
C70 / DATE: 7/ 1/2024 / Origin: Program Fullerene / C70 from database
 C            1.40357519        0.14038489        4.85407373
 C            0.61897591       -1.07276656        4.71292506
 C            1.44570595       -2.06074737        4.05958867
 C            2.62117790       -0.03101121        4.07847356
 C            2.70353638       -1.42169750        3.70117822
 C            2.62587612        0.96892085        3.02515352
 C            0.64592876        1.22492593        4.25457384
 C            1.46393747        1.81774388        3.22580685
 C           -0.63717778       -0.71430741        4.08880600
 C           -0.65265482        0.71815010        3.86604381
 C           -1.16513711       -1.51411974        3.08695340
 C            0.93050641       -2.71485847        2.86921884
 C           -0.36526791       -2.46896276        2.44025502
 C            2.96447818       -1.73196692        2.31322641
 C            1.98324875       -2.71170609        1.87684525
 C            2.96647586        0.61065195        1.71348107
 C            3.31425124       -0.71982063        1.42350754
 C            2.56367865        1.46919564        0.67520433
 C            0.84107077        2.30637192        2.09379242
 C            1.62901037        2.46554122        0.96884103
 C           -1.22539478        1.18271994        2.68062024
 C           -0.53835897        2.12866887        1.91338714
 C           -2.22441509       -0.98446682        2.36834836
 C           -2.17921866        0.38197475        2.05222369
 C           -2.87064911       -1.85433244        1.50870403
 C           -0.69001931       -2.82742359        1.13170762
 C           -2.03073245       -2.77897895        0.77337175
 C            1.65012914       -2.73476983        0.52205523
 C            0.29717837       -2.73028360        0.14031726
 C            3.42210604       -1.10609529        0.09685191
 C            2.60000640       -2.22159536       -0.35178924
 C            2.83432153        1.13828375       -0.65926460
 C            3.38391085       -0.10403796       -0.94403724
 C            2.28112132        1.89502973       -1.69968029
 C            1.11779646        3.25591467       -0.04019599
 C            1.57312824        3.05198255       -1.39645371
 C           -1.10324136        2.57956864        0.71419559
 C           -0.32232069        3.42205760       -0.07843865
 C           -2.78843735        0.84568438        0.88243624
 C           -2.17239450        1.86752941        0.13997771
 C           -3.85978895       -1.32578251        0.60240541
 C           -3.82185338        0.09317930        0.32612655
 C           -2.39079771       -2.66536621       -0.62334202
 C           -3.69139042       -2.01967201       -0.66139010
 C           -0.06174489       -2.38755324       -1.17925298
 C           -1.41363550       -2.29563079       -1.54245025
 C            2.24750599       -1.97623495       -1.72990203
 C            2.98469135       -0.79460424       -2.15366081
 C            0.92904618       -2.13730799       -2.13605890
 C            2.18465624        1.35417642       -2.98660427
 C            2.49088451       -0.04992251       -3.20941892
 C            1.05248311        1.69965741       -3.83854508
 C            0.49741710        3.48254437       -2.27149555
 C           -0.69090939        3.66629002       -1.45177486
 C            0.14123734        2.64925535       -3.40309939
 C           -2.55794897        2.10794358       -1.19610910
 C           -1.75172441        2.87765120       -2.02282972
 C           -1.26559870        2.28841871       -3.26277127
 C           -4.13627484        0.24207820       -1.07464436
 C           -3.95493519       -1.05839989       -1.70638967
 C           -3.38836229        1.20658530       -1.84457021
 C           -1.78719182       -1.62879335       -2.71823929
 C           -1.71950048        1.01669049       -3.63014166
 C           -2.96608333       -0.88998583       -2.74875997
 C           -2.87858446        0.53084026       -3.02684661
 C            0.56865014       -1.63332283       -3.38069027
 C            1.40741254       -0.61488206       -3.99207451
 C            0.54965937        0.47499027       -4.42427752
 C           -0.80910556       -1.26836845       -3.63096132
 C           -0.82392597        0.08817379       -4.16451697
