   70
C70 / DATE: 7/ 1/2024 / Origin: Program Fullerene / C70 from database
 C            1.34439026        0.03641323        4.67539700
 C            2.52079026       -0.06379099        3.83706505
 C            2.51036402       -1.37832645        3.21982450
 C            0.50836258       -1.12519145        4.41046863
 C            1.21208677       -1.97539072        3.47089280
 C           -0.81542564       -0.65343377        4.05353466
 C            0.51216008        1.21394398        4.55794317
 C           -0.85331724        0.77335892        4.31302765
 C            0.82428457        2.20785596        3.54505099
 C            2.72677462        0.91115204        2.77866504
 C            1.84558951        1.98142994        2.61468179
 C            2.93685989       -1.22671399        1.83701173
 C            3.16883907        0.18585922        1.60124014
 C            2.28127836       -1.96152206        0.85498935
 C            0.52171213       -2.49416899        2.38365118
 C            1.25153467       -2.81584927        1.24655778
 C           -1.40511346       -1.13345180        2.88934792
 C           -0.84554989       -2.23864295        2.24268076
 C           -2.26766049       -0.30079411        2.18019789
 C           -1.41636548        1.64821258        3.29751892
 C           -0.45402857        2.71300027        3.07836000
 C           -2.05578068        1.07906832        2.19811461
 C           -0.48730578        3.39226941        1.87526357
 C            1.77231637        2.60496957        1.36543366
 C            0.75097838        3.52585664        1.13700145
 C            2.86491241        0.71040911        0.35433964
 C            2.43488241        2.03134479        0.27370661
 C            2.30699642       -1.49892212       -0.46235660
 C            2.61535170       -0.15423301       -0.71413881
 C            1.74751842       -2.29497317       -1.46488781
 C            0.62813920       -3.59051258        0.28496042
 C            1.01326372       -3.42108756       -1.10200178
 C           -1.51787347       -2.79970744        1.15191376
 C           -0.82010975       -3.67885138        0.32366646
 C           -3.01339658       -0.84966882        1.14944759
 C           -2.68097599       -2.18476183        0.68322529
 C           -3.29007375       -0.03242073       -0.01632165
 C           -2.14721233        1.80663081        1.00584840
 C           -1.50173187        3.03281705        0.89946150
 C           -2.63428895        1.18876686       -0.14664330
 C            0.38167074        3.85965748       -0.22369405
 C           -1.00966299        3.45640349       -0.39732282
 C            2.33417139        2.61649461       -0.98442290
 C            1.28480196        3.59181109       -1.23743924
 C            2.46550938        0.38033488       -1.99663579
 C            2.44243578        1.76502088       -2.15788270
 C            1.63145917       -1.79968163       -2.75959307
 C            2.00644641       -0.42693965       -3.03414031
 C            0.44396623       -2.10449529       -3.54876475
 C           -0.12286516       -3.82272091       -1.91260189
 C           -1.27806344       -3.91961069       -1.03405719
 C           -0.48957617       -3.00499886       -3.05248211
 C           -3.04205035       -2.25664455       -0.72745431
 C           -3.41969931       -0.91926032       -1.15848634
 C           -2.32820195       -3.08580985       -1.58259713
 C           -1.87010418       -2.58036915       -2.86828147
 C           -3.04644385       -0.46270317       -2.41293988
 C           -2.26771824       -1.31786783       -3.29697088
 C           -2.23337477        1.64037574       -1.41263669
 C           -1.37502890        2.73911690       -1.53357203
 C           -2.54427347        0.89300302       -2.54907712
 C            0.76217249        3.34283490       -2.56663452
 C            1.60401792        2.34128709       -3.19390942
 C           -0.61173663        2.89475285       -2.69155475
 C            1.05675312        0.10864867       -4.00159391
 C           -0.00665883       -0.86782314       -4.16314932
 C           -1.33220793       -0.47061581       -4.02165238
 C           -1.63853506        0.91106950       -3.68386580
 C            0.74387043        1.46014315       -3.96208810
 C           -0.63424968        1.86764307       -3.71863911
