   70
C70 / DATE: 7/ 1/2024 / Origin: Program Fullerene / C70 from database
 C            1.29497431       -0.13858339        4.21425670
 C            2.55276791       -0.47950881        3.59349073
 C            2.40028959       -1.78937913        2.97088521
 C            0.44243875       -1.31072196        4.12825734
 C            1.02405097       -2.19306119        3.14241799
 C           -0.90956032       -0.84789668        3.89362285
 C            0.54175199        0.98042455        3.68417771
 C           -0.85677664        0.59449726        3.69609729
 C            1.02651711        1.69204649        2.59260959
 C            3.08601363        0.40401350        2.57822263
 C            2.33893613        1.49450569        2.13045755
 C            2.93300397       -1.68907197        1.62810940
 C            3.69823460       -0.45754281        1.59091678
 C            2.12126166       -2.00527797        0.53884248
 C            0.25751065       -2.50202269        2.02722043
 C            0.82766201       -2.49304841        0.74478655
 C           -1.73132780       -1.58176923        3.04425671
 C           -1.13147164       -2.48742886        2.15727233
 C           -2.92553557       -0.97118003        2.67881909
 C           -1.73558448        1.15568293        2.77077858
 C           -2.93533413        0.47802695        2.56783326
 C            0.11398157        2.39956281        1.81189559
 C           -1.22009943        1.97117356        1.74903970
 C            0.59509048        3.27172322        0.84103989
 C            2.75031530        2.12738218        0.95482041
 C            1.99033005        3.18005351        0.45633106
 C            3.99026464        0.08545886        0.35588600
 C            3.67292787        1.48490900        0.12235391
 C            2.48057482       -1.52496154       -0.72092288
 C            3.54856617       -0.62963279       -0.82500898
 C            1.62779408       -1.71003496       -1.81275316
 C            0.02646671       -2.79872240       -0.35699744
 C            0.36378080       -2.29487523       -1.62523788
 C           -1.88499729       -3.07718470        1.15112785
 C           -1.23972354       -3.33478189       -0.12453560
 C           -3.71836921       -1.51350809        1.59197053
 C           -3.23381468       -2.60302944        0.88416058
 C           -3.77444188        0.83281333        1.44675861
 C           -4.29823534       -0.39251179        0.86820587
 C           -1.94567321        2.18458158        0.56507636
 C           -3.19308430        1.61384125        0.38234631
 C           -0.17977567        3.44976524       -0.37090717
 C           -1.27308096        2.62339306       -0.56416937
 C            2.08556809        3.53747426       -0.94994726
 C            0.73335853        3.68926400       -1.46231625
 C            3.60143061        1.65595237       -1.32289663
 C            3.58234452        0.32486007       -1.91702125
 C            2.80916836        2.66442039       -1.85476399
 C            1.94761780       -1.09856113       -3.02784580
 C            2.80192384        0.07589348       -3.03324624
 C            0.90217526       -0.85135429       -3.98998310
 C           -0.61341350       -2.19907400       -2.63719830
 C           -0.43168090       -1.27679499       -3.65586367
 C           -2.24948863       -3.23077559       -1.15037052
 C           -3.44771290       -2.66691824       -0.55087447
 C           -1.93872282       -2.45674751       -2.32407461
 C           -4.13260102       -0.31039256       -0.57393601
 C           -3.45581698        0.94210462       -0.87744909
 C           -3.78651557       -1.45241021       -1.27866275
 C           -2.86602685       -1.33888714       -2.39206868
 C           -1.43950265        1.92277117       -1.76891308
 C           -1.29665427       -0.10786384       -3.66016330
 C           -2.47962879        0.98407545       -1.87673078
 C           -2.35891113       -0.09356345       -2.76326288
 C            0.60942001        2.87620346       -2.65072442
 C            1.93653015        2.37640502       -2.98172330
 C            2.05067191        1.16228208       -3.64696533
 C            0.85524025        0.58144449       -4.23025521
 C           -0.49459576        2.03725679       -2.79826225
 C           -0.44279720        1.05481630       -3.77829223
