   70
C70 / DATE: 7/ 1/2024 / Origin: Program Fullerene / C70 from database
 C            1.37537467        0.11427946        5.04063253
 C            0.58339916       -1.05305909        4.69390190
 C            1.44959460       -1.97053283        3.99398682
 C            2.60667876        0.05140674        4.27063242
 C            2.70089035       -1.27712257        3.71467116
 C            2.61931299        1.18369489        3.36340315
 C            0.64561175        1.28902692        4.60061962
 C            1.52441888        2.06083370        3.74634407
 C           -0.61790639       -0.59620279        4.02221625
 C           -0.62717089        0.85498455        4.05300167
 C           -1.05288691       -1.22788110        2.85966224
 C            0.98399601       -2.53591103        2.74275586
 C           -0.29374454       -2.24650233        2.26957529
 C            2.95859755       -1.41560374        2.29575814
 C            2.08272145       -2.45708899        1.80500728
 C            2.88758155        0.99598731        2.00480961
 C            3.14125728       -0.29094094        1.49423035
 C            2.58596709        2.04013659        1.12478875
 C            0.93872878        2.84204417        2.76322117
 C            1.60421511        2.96251192        1.47894761
 C           -1.14224740        1.53139090        2.95004627
 C           -0.47998415        2.66710853        2.48247760
 C           -1.97566642       -0.55360960        2.06595036
 C           -1.98256356        0.84533239        2.07413301
 C           -2.54586332       -1.22687078        0.98729356
 C           -0.57646348       -2.58741164        0.94734550
 C           -1.83862046       -2.29628551        0.43630513
 C            1.77733918       -2.45462904        0.45364772
 C            0.48569186       -2.80026462        0.06003523
 C            3.12356703       -0.48824539        0.11209392
 C            2.53426067       -1.65376778       -0.39549705
 C            2.91559977        1.91499951       -0.21857216
 C            3.30583335        0.61305312       -0.71532686
 C            2.04033673        2.51212345       -1.21541140
 C            0.59172953        3.32852930        0.50065605
 C           -0.70557169        3.10643436        1.11313156
 C            0.78058117        2.96755829       -0.82882556
 C           -2.49052437        1.52016877        0.96782663
 C           -1.69751153        2.49531929        0.36030234
 C           -3.50735435       -0.55904525        0.23238396
 C           -3.47877644        0.89130629        0.22212762
 C           -3.83404602       -1.01366650       -1.10798698
 C           -2.16819718       -2.78628125       -0.82325341
 C           -3.19586664       -2.13395844       -1.61702878
 C            0.22304079       -2.96240617       -1.30133914
 C           -1.08961611       -3.17385816       -1.71404679
 C            2.34524420       -1.80516951       -1.76468050
 C            1.17884278       -2.54094497       -2.22909889
 C            2.93628305        0.54297857       -2.11962681
 C            2.19231472        1.75117654       -2.44388225
 C            2.54315064       -0.67430287       -2.65441156
 C            1.12926705        1.69151784       -3.33393388
 C           -0.33222074        2.67762497       -1.62450254
 C           -1.59094618        2.52511717       -1.03088902
 C           -0.13639096        2.28887196       -2.94933842
 C           -3.71447170        1.33370738       -1.13835769
 C           -3.98959843        0.16146844       -1.95117073
 C           -2.67590220        2.10205053       -1.79384424
 C           -1.18817110        1.58866115       -3.66643515
 C           -3.20955075        0.27283086       -3.17342176
 C           -2.45340234        1.51503995       -3.10391958
 C           -2.75644245       -2.13281342       -3.00362678
 C           -1.47871239       -2.82077965       -3.06837021
 C           -2.62260385       -0.86832138       -3.70934558
 C            0.76206346       -1.95414549       -3.49516934
 C            1.50581380       -0.71766544       -3.67378781
 C            0.83556695        0.44781763       -4.02912188
 C           -0.59673333        0.41079696       -4.28405601
 C           -0.57350616       -2.01921853       -3.86964695
 C           -1.27563826       -0.80338358       -4.25599666
