   70
C70 / DATE: 7/ 1/2024 / Origin: Program Fullerene / C70 from database
 C            1.50219340       -0.15203673        5.19096328
 C            0.62565372       -1.30703170        5.26844523
 C            1.18153733       -2.33701225        4.41424781
 C            2.54429115       -0.44094085        4.21985042
 C            2.34629602       -1.79070133        3.73445127
 C            2.56153242        0.63729871        3.25043570
 C            0.72518315        0.95340003        4.66673265
 C            1.48513050        1.55466410        3.58342175
 C           -0.66258912       -0.93417672        4.70586377
 C           -0.60896641        0.46965820        4.35979832
 C            0.09918036       -2.85387388        3.59823351
 C           -0.98604822       -1.88339262        3.65758042
 C            0.43215873       -3.38268727        2.36379375
 C            2.48160699       -2.03558705        2.37072698
 C            1.75159254       -3.09105280        1.82584291
 C            2.76093683        0.32876413        1.90923736
 C            2.92019046       -1.00790849        1.52599324
 C            2.37104676        1.26750788        0.95227481
 C            0.77271037        2.11922907        2.53169345
 C            1.39452968        2.21369210        1.28781186
 C           -1.16397356        0.88057802        3.15627528
 C           -0.61486728        2.00595199        2.55595274
 C           -1.53863908       -1.40734273        2.46620898
 C           -1.82359474       -0.04462687        2.33682271
 C           -0.49558072       -3.21260308        1.26554965
 C           -1.44616679       -2.19222929        1.31757095
 C            1.67059880       -3.24033231        0.38287471
 C            0.26634634       -3.39230650        0.04220025
 C            3.13127150       -1.29340924        0.17915968
 C            2.46812644       -2.44216948       -0.41752241
 C            2.71824666        1.06180067       -0.38340780
 C            3.09160570       -0.21388215       -0.79291602
 C            2.29031011        1.96570852       -1.34868469
 C            0.74015314        2.92164484        0.27961327
 C            1.28754681        2.95262586       -0.99543498
 C           -1.33470448        2.58718129        1.52983940
 C           -0.60726031        3.21989835        0.44528804
 C           -2.39762933        0.42461990        1.14976749
 C           -2.38847520        1.79601598        0.92517260
 C           -1.96217621       -1.71411115        0.11330616
 C           -2.52375550       -0.43398463        0.05392191
 C           -0.22891533       -2.80419919       -1.11204560
 C           -1.52920926       -2.31841034       -1.06514281
 C            1.97414038       -2.04249584       -1.72443390
 C            2.54340537       -0.74965249       -2.03098219
 C            0.64775615       -2.27679422       -2.06725335
 C            1.96824237        1.47193185       -2.67749012
 C            1.84074530        0.09972661       -2.87523104
 C            0.42507834        3.15260834       -2.15563709
 C            0.98933600        2.37463409       -3.25426635
 C           -1.49151492        3.22166780       -0.70562644
 C           -2.58098310        2.30057929       -0.41640232
 C           -0.96153791        3.23860896       -1.99186567
 C           -2.97172591        0.05775276       -1.18451214
 C           -2.99718198        1.44327583       -1.42229256
 C           -2.12672345       -1.96200774       -2.25799566
 C           -3.03793219       -0.83939625       -2.25353890
 C            0.10248435       -1.57278535       -3.14356212
 C            0.73111446       -0.38887444       -3.57349482
 C           -1.25440800       -1.77270811       -3.39607774
 C            0.15134053        1.90017389       -4.25085189
 C            0.09331602        0.46440305       -4.47835945
 C           -1.79778357        2.84007575       -3.03331847
 C           -2.89641530        1.93741908       -2.72243363
 C           -1.20812728        2.39402457       -4.28028754
 C           -3.09998877       -0.35985555       -3.62364636
 C           -1.96140899       -0.92921349       -4.33512089
 C           -1.23960623        0.15212350       -4.96133414
 C           -3.09590019        1.06244587       -3.85662209
 C           -2.05314584        1.34810125       -4.82913120
