   70
C70 / DATE: 7/ 1/2024 / Origin: Program Fullerene / C70 from database
 C            1.07836868       -0.05557400        4.74934559
 C            2.30853282       -0.38871381        4.06376073
 C            2.22275052       -1.78228825        3.66774296
 C            0.23941280       -1.24506472        4.74970628
 C            0.83958248       -2.18997631        3.83122949
 C           -1.12053806       -0.82158909        4.51515417
 C            0.27242434        1.03536420        4.23884914
 C           -1.11284631        0.62598306        4.35652451
 C            0.65962001        1.70648564        3.08276507
 C            2.67284765        0.36836200        2.88392205
 C            1.90001732        1.44741088        2.47967496
 C            2.82064199       -1.90638512        2.35203804
 C            3.11472040       -0.56530576        1.86683337
 C            2.25522541       -2.80886398        1.47141777
 C            0.13757274       -2.62974761        2.70559161
 C            0.87297859       -3.22613187        1.68622748
 C           -1.82705733       -1.36177316        3.37306381
 C           -1.14593624       -2.13282046        2.42611360
 C           -2.02473967        0.94471568        3.26746857
 C           -2.69187416       -0.29480204        2.91120846
 C           -0.32350942        2.36682682        2.34313345
 C           -1.59381516        1.79451670        2.24722533
 C            0.08746204        3.25015678        1.35648075
 C            2.12366805        1.95173945        1.20477514
 C            1.44462233        3.11303808        0.87132273
 C            2.87695205       -0.24693452        0.52606797
 C            2.52676994        1.06532703        0.19154480
 C            2.39918874       -2.56559080        0.05393124
 C            2.65676932       -1.27108370       -0.40043201
 C            0.27197438       -3.41370112        0.37958304
 C            1.35370324       -3.33626782       -0.58508760
 C           -1.68178300       -2.23049074        1.13224241
 C           -0.93906070       -2.79362189        0.09105143
 C           -3.23393304       -0.40309699        1.64660699
 C           -2.85396573       -1.54406106        0.83437597
 C           -2.23166986        1.73687726        1.00068870
 C           -3.18292139        0.75380833        0.77172474
 C           -0.75405972        3.42472825        0.18997105
 C           -1.71936399        2.46061152       -0.07961530
 C            1.47535412        3.58591099       -0.49078209
 C            0.10454677        3.89639832       -0.87090351
 C            2.34963697        1.40131359       -1.15594870
 C            2.01196778        2.70786763       -1.50528055
 C            2.32390674       -0.95150615       -1.71907341
 C            2.24383264        0.38759584       -2.11347157
 C            1.04398725       -3.03576601       -1.89429149
 C            1.75755378       -1.94258969       -2.52416654
 C           -1.26900897       -2.52836630       -1.24836998
 C           -0.35020693       -2.85714612       -2.24784214
 C           -3.13147915       -1.18075314       -0.53823655
 C           -3.36023422        0.25771101       -0.57177912
 C           -2.39281888       -1.75249543       -1.56610674
 C           -1.93964629        2.02054633       -1.40250298
 C           -2.84862533        0.97353537       -1.64484616
 C           -0.09493894        3.37492734       -2.19986509
 C            1.20470350        2.93617344       -2.68478421
 C           -1.20780967        2.58502084       -2.47020641
 C            1.84112505        0.70128738       -3.41706577
 C            1.23608897        1.99488728       -3.69731432
 C            0.97891389       -1.56848126       -3.68810838
 C           -0.35823295       -2.13007476       -3.50417630
 C            1.13444857       -0.29317954       -4.20859604
 C           -2.47910457       -1.13220461       -2.81361567
 C           -2.79716605        0.28622834       -2.84997174
 C           -1.47869361       -1.38469943       -3.83431203
 C           -1.25568498        2.00562170       -3.73698130
 C            0.00153382        1.74726470       -4.42042610
 C            0.00312845        0.35902460       -4.84273582
 C           -2.11761837        0.87315090       -3.97641486
 C           -1.32819148       -0.16926999       -4.61605297
