   70
C70 / DATE: 7/ 1/2024 / Origin: Program Fullerene / C70 from database
 C            1.38136390       -0.07861260        4.11012723
 C            2.46927335       -0.32194710        3.18064211
 C            2.33504941       -1.68319810        2.68295774
 C            0.53909067       -1.26193478        4.13457325
 C            1.07517063       -2.21581854        3.17978849
 C           -0.83750516       -0.83394859        3.99273933
 C            0.52891642        1.07440935        3.90120210
 C           -0.83302833        0.59601671        3.72816972
 C            0.98719756        2.09931050        3.09244058
 C            2.86159692        0.68392251        2.30172182
 C            2.22567710        1.92727204        2.34127533
 C            3.58169330        0.32463922        1.16686431
 C            2.73848442       -1.97321560        1.38256359
 C            3.54482082       -1.05812297        0.71237744
 C            2.03992219       -2.93210805        0.65473556
 C            0.21212967       -2.86427940        2.29958948
 C            0.72005374       -3.35350492        1.09961529
 C           -1.70583099       -1.63714340        3.27286912
 C           -1.16822651       -2.70701923        2.43901711
 C           -2.77995295       -1.00913716        2.52687403
 C           -1.62791339        1.10183668        2.69704269
 C           -2.73113070        0.36051487        2.26774442
 C            0.04658699        2.78441764        2.22761950
 C           -1.19383384        2.20924937        1.95506711
 C            2.11053153        2.71878340        1.12343177
 C            0.81262448        3.37095961        1.14418893
 C            3.54365354        1.17719825       -0.00974022
 C            2.61786967        2.21423316       -0.07125469
 C            3.58902554       -1.05069967       -0.74273689
 C            3.76687599        0.33267146       -1.16730926
 C            2.01997694       -2.87350185       -0.79884081
 C            2.76337590       -1.90864093       -1.47050354
 C           -0.14364999       -3.42773024       -0.06996140
 C            0.66205806       -3.15269032       -1.24112549
 C           -2.02209709       -2.81668396        1.26408992
 C           -3.15017544       -1.92473012        1.46025430
 C           -1.43548080       -2.92855415        0.00683528
 C           -3.81091483       -1.42252087        0.35183312
 C           -3.56313116        0.88080298        1.28450616
 C           -4.24222886       -0.03711044        0.38477258
 C           -1.89673187        2.61632858        0.81648621
 C           -3.10790976        2.01296729        0.50193906
 C            0.17468390        3.63813356       -0.05273039
 C           -1.23827707        3.32678710       -0.18530587
 C            2.00600180        2.53909788       -1.28852484
 C            0.82559891        3.27879659       -1.29988140
 C            3.27719466        0.73600188       -2.39701062
 C            2.37554662        1.87505244       -2.45723293
 C            2.38187760       -1.56332352       -2.76505210
 C            2.77656783       -0.27546295       -3.30552963
 C            0.12745820       -2.41079146       -2.28609825
 C            1.01378904       -1.82265818       -3.18901096
 C           -1.97879974       -2.23666205       -1.08021418
 C           -3.25230852       -1.67291856       -0.96662693
 C           -1.19602512       -1.96227591       -2.21109469
 C           -4.14254174        0.49386475       -0.96247554
 C           -3.42465120        1.75286958       -0.89608040
 C           -3.62608417       -0.55495205       -1.81816926
 C           -1.49237149        2.98743175       -1.57635550
 C           -0.21117749        2.94550850       -2.26507548
 C           -2.47620956        2.05004640       -1.87270697
 C            1.35959949        1.59211531       -3.46166174
 C            1.63952372        0.28105700       -4.01725254
 C            0.58333432       -0.71097910       -4.02258774
 C            0.03857702        1.96098442       -3.21521217
 C           -1.67041368       -1.07276104       -3.17387307
 C           -2.78182943       -0.20011496       -2.85492898
 C           -2.28563907        1.16946904       -2.93874471
 C           -0.72753985       -0.27793500       -3.93331500
 C           -0.99916205        1.12093799       -3.62173047
