   70
C70 / DATE: 7/ 1/2024 / Origin: Program Fullerene / C70 from database
 C            1.26917558       -0.09053912        4.52001673
 C            2.60244628       -0.29744391        3.98844020
 C            2.67156627       -1.66510169        3.51626440
 C            0.46273850       -1.25248947        4.17173632
 C            1.32052472       -2.20364865        3.50687007
 C           -0.71140870       -0.78323396        3.47367330
 C            0.53552821        1.08973575        4.10902333
 C           -0.77674088        0.65505201        3.66033938
 C            1.19014299        2.07692258        3.38444063
 C            3.07248381        0.56011249        2.91260900
 C            2.42409255        1.76009704        2.67145695
 C            3.40671410       -1.66224113        2.26307399
 C            3.40637333       -0.29044104        1.78085536
 C            3.10787849       -2.66181105        1.35762024
 C            0.88764698       -2.82702098        2.34205316
 C            1.88568247       -3.41622411        1.57698449
 C           -1.02337367       -1.30996851        2.22207749
 C           -0.28985885       -2.38617106        1.70213267
 C           -1.85226086       -0.56470431        1.38171341
 C           -1.44405215        1.40650113        2.70226645
 C           -2.22622719        0.72393147        1.77063850
 C            0.39981414        2.92288801        2.51216145
 C           -0.96315234        2.68119923        2.38066047
 C            2.24633672        2.18690269        1.29669551
 C            1.16755078        3.15157620        1.29992849
 C            2.88313408       -0.00157832        0.51253298
 C            2.31068812        1.24885034        0.26909039
 C            3.09327998       -2.32717262       -0.04985023
 C            2.75042649       -1.02757146       -0.42895680
 C            1.53849491       -4.01923348        0.31731321
 C            2.42919752       -3.44273497       -0.68170549
 C           -0.63101526       -2.89271790        0.43763115
 C            0.19340383       -3.83795825       -0.17490366
 C           -2.11081038       -1.00973451        0.08295048
 C           -1.58845668       -2.23237923       -0.34357471
 C           -2.88245996       -0.23050337       -0.79118172
 C           -3.09925761        1.45442981        0.98044847
 C           -3.43472363        0.96557670       -0.34325163
 C           -1.62530626        3.40269922        1.39410670
 C           -2.87766417        2.88191375        0.88385008
 C            0.46429813        3.37288492        0.12616685
 C           -0.84272616        3.83989761        0.24784375
 C            1.55163965        1.45931572       -0.88255747
 C            0.81379783        2.64394452       -1.01153321
 C            2.00049596       -0.81591036       -1.59833283
 C            1.45848339        0.45342607       -1.85353674
 C            1.62678275       -3.18183099       -1.84733255
 C            0.33567956       -3.80703868       -1.61315134
 C            1.64173564       -1.90977247       -2.40667349
 C           -1.78945709       -2.63629988       -1.66571869
 C           -0.72957526       -3.35049176       -2.36275988
 C           -2.85298182       -0.48262934       -2.16347843
 C           -2.37735057       -1.70598492       -2.61578201
 C           -2.85719476        0.59284623       -3.05640006
 C           -3.48393885        2.10908036       -1.24342974
 C           -2.98099722        3.25953679       -0.51324219
 C           -1.71236786        3.84891318       -0.91426496
 C           -3.08711479        1.93850540       -2.56191437
 C            0.15008470        2.91415017       -2.19985267
 C           -1.18021063        3.50741846       -2.14970528
 C           -2.01809265        2.77778236       -3.08331143
 C            0.78564358        0.70001921       -3.05694183
 C           -1.81831221        0.67284302       -4.07582406
 C            0.16405770        1.92876147       -3.26227149
 C           -1.14767378        1.94103712       -3.88623598
 C            0.77420999       -1.71515652       -3.47278414
 C           -0.40673999       -2.56138979       -3.53485997
 C           -1.54301976       -1.71107841       -3.80407454
 C            0.36711550       -0.37547729       -3.83518722
 C           -1.02482325       -0.44306754       -4.27108522
