   70
C70 / DATE: 7/ 1/2024 / Origin: Program Fullerene / C70 from database
 C            1.14723311       -0.13866767        4.93253601
 C            2.47112494       -0.45089879        4.43191341
 C            2.36036674       -1.66157804        3.62923870
 C            0.30088240       -1.28520057        4.65340164
 C            0.96472254       -2.06519476        3.62718939
 C           -1.02513193       -0.77831259        4.38182456
 C            0.45612701        1.03161806        4.41377111
 C           -0.94218165        0.67616894        4.33170118
 C            1.02730020        1.76439499        3.37482961
 C            3.15222491        0.54437536        3.62927708
 C            2.40837699        1.70379983        3.17124165
 C            3.01072180       -1.41081690        2.35480273
 C            3.66107617       -0.11950842        2.44057850
 C            2.33287629       -1.72363593        1.18410946
 C            0.33282703       -2.27310460        2.40087271
 C            1.11997875       -2.40573318        1.25603986
 C           -1.69435948       -1.20451536        3.16949684
 C           -1.03639172       -2.01947800        2.25364662
 C           -1.70234437        1.11262100        3.17785792
 C           -2.39547469       -0.05046254        2.65852097
 C            0.21328314        2.36936477        2.40570354
 C           -1.13215755        1.99555016        2.26319150
 C            0.81872879        3.12087298        1.40242813
 C            2.94722033        2.03232466        1.86594506
 C            3.50469244        0.80339434        1.32701359
 C            2.19136030        2.82800408        1.02613687
 C            2.62915481       -1.01701698        0.02034463
 C            3.01208900        0.32378979        0.11367351
 C            2.09372553       -1.48193469       -1.17509505
 C            0.51367149       -2.78392188        0.06257086
 C            1.21559736       -2.56323743       -1.12123797
 C           -1.59042955       -2.13530761        0.97979174
 C           -0.87841248       -2.84117337        0.01988451
 C           -2.73535799       -0.04137199        1.31777230
 C           -2.54397297       -1.19759110        0.55959410
 C           -1.76379011        2.13084619        1.01930557
 C           -2.72943292        1.17790639        0.66030642
 C            0.09330149        3.39755044        0.17776005
 C           -1.23056037        3.00028303        0.05762335
 C            2.17720101        2.51960784       -0.39250963
 C            2.51149452        1.23790563       -0.81745652
 C            0.99388047        3.14640515       -0.93820872
 C            2.02725202       -0.61030720       -2.25769637
 C            1.96725042        0.76050885       -2.00968958
 C            1.64252013       -1.10600490       -3.49728957
 C            0.71090637       -3.08735809       -2.30510136
 C            1.02196588       -2.41683158       -3.55505773
 C           -1.50709942       -3.11925754       -1.18567826
 C           -0.69048983       -3.45218767       -2.33925956
 C           -2.97199982       -1.19809757       -0.77597223
 C           -2.56044949       -2.22297149       -1.62678286
 C           -3.33905405        1.22642799       -0.58148195
 C           -3.44770839       -0.01070242       -1.33840689
 C           -1.78460522        3.04347198       -1.21880025
 C           -2.98381001        2.28594161       -1.49399977
 C            0.45725538        2.65131126       -2.11866786
 C            1.07770696        1.56427014       -2.73915602
 C           -0.89430544        2.89085298       -2.35960334
 C            0.91319335       -0.23820680       -4.39759450
 C            0.53863576        1.08384522       -3.92986199
 C           -0.21107425       -2.29611647       -4.31821920
 C           -1.28632207       -2.82475021       -3.50593945
 C           -2.32849944       -1.92882894       -3.03405842
 C           -0.30671615       -0.93025547       -4.78759366
 C           -3.14938258        0.29230127       -2.73101812
 C           -2.86584850        1.71386173       -2.82475969
 C           -1.59728901        2.13599186       -3.38583246
 C           -0.88717238        1.23397251       -4.16289606
 C           -2.38257586       -0.60425947       -3.46836519
 C           -1.42352612       -0.10474281       -4.35860545
