   70
C70 / DATE: 7/ 1/2024 / Origin: Program Fullerene / C70 from database
 C            1.18754579        0.06168456        4.26176448
 C            2.45063445       -0.26687395        3.64064442
 C            2.43024087       -1.68463049        3.32989759
 C            0.37170804       -1.14299001        4.27492009
 C            1.06595321       -2.15185863        3.50904451
 C           -0.96303905       -0.77015779        3.86666904
 C            0.38434749        1.11981748        3.68272203
 C           -0.99125537        0.67433258        3.68812348
 C            0.83648484        1.81297963        2.57159978
 C            2.83207827        0.43496237        2.43209649
 C            2.04261494        1.46646433        1.94371478
 C            3.05779495       -1.86224772        2.03312841
 C            3.33935516       -0.54109302        1.48728063
 C            2.54250706       -2.82983439        1.18687237
 C            0.41950574       -2.75954472        2.43509931
 C            1.20593071       -3.34923418        1.44368228
 C           -1.64612673       -1.55891994        2.94838377
 C           -0.94124105       -2.51057623        2.19159622
 C           -2.83844254       -1.03215358        2.45683990
 C           -1.88317833        1.20075915        2.75419081
 C           -2.99036707        0.41414887        2.44494974
 C           -0.08631188        2.57700835        1.86703039
 C           -1.43274992        2.16542591        1.83012989
 C            0.41553040        3.43717258        0.90031327
 C            2.25489503        1.87661424        0.63161813
 C            1.63041422        3.04127062        0.21292517
 C            3.15825246       -0.31351097        0.12073093
 C            2.68299156        0.93614031       -0.31232351
 C            2.66571785       -2.63716065       -0.24425093
 C            3.10342668       -1.41222290       -0.74194701
 C            0.62100281       -3.71836173        0.16587151
 C            1.52438111       -3.27167304       -0.88065270
 C           -1.55467104       -3.10514904        1.08724347
 C           -0.74262120       -3.58515290       -0.01584414
 C           -3.43044090       -1.55265774        1.23621971
 C           -2.73912365       -2.50305677        0.50729192
 C           -3.82475815        0.76224614        1.32091491
 C           -4.03873593       -0.44009768        0.53095510
 C           -2.27966215        2.58532042        0.78326029
 C           -3.36965355        1.79923462        0.42805983
 C           -0.48150752        4.01391180       -0.06814421
 C           -1.79378156        3.43123838       -0.20816166
 C            1.44896915        3.28981830       -1.20192336
 C            0.17422843        3.97140940       -1.36456093
 C            2.50703084        1.17724862       -1.68185638
 C            1.80361245        2.30927470       -2.12070379
 C            2.94441729       -1.19006905       -2.10368561
 C            2.84370422        0.17163288       -2.58535728
 C            1.02425222       -2.69294990       -2.04255338
 C            1.92977933       -1.96343963       -2.80584128
 C           -1.23449824       -2.96062542       -1.23299009
 C           -2.46183940       -2.25916261       -0.90287973
 C           -0.33789640       -2.37098420       -2.11575703
 C           -3.61707550       -0.15505660       -0.83032472
 C           -3.42986111        1.27848686       -0.92788649
 C           -2.70419213       -0.99988991       -1.45251721
 C           -1.95505016        3.02271588       -1.59579158
 C           -0.77498324        3.45008405       -2.33215165
 C           -2.53316965        1.78067227       -1.86072400
 C            1.11318022        2.28207322       -3.33494753
 C           -0.29271337        2.64263011       -3.35028307
 C            2.17380828        0.10030279       -3.86990100
 C            1.43808152       -1.15268831       -3.89926937
 C            1.24745885        1.14908441       -4.22500844
 C           -0.75658893       -1.26407092       -2.85815220
 C           -1.81106714       -0.47002421       -2.38831362
 C           -1.87753231        0.89398553       -2.71664708
 C           -1.01169504        1.42307843       -3.66864507
 C            0.02961058       -0.82534477       -3.91631355
 C           -0.07561681        0.55023380       -4.34947502
