   70
C70 / DATE: 7/ 1/2024 / Origin: Program Fullerene / C70 from database
 C            1.33157189       -0.19779711        4.13140230
 C            2.45965756       -0.46217710        3.25635213
 C            2.37310515       -1.85230566        2.83219287
 C            0.45324593       -1.35103861        4.08783989
 C            1.15588548       -2.41884919        3.40573877
 C           -0.82607435       -0.91551200        3.55624147
 C            0.52492101        0.97913414        3.88542954
 C           -0.81005221        0.53436234        3.50991331
 C            1.09427350        2.02786490        3.18237040
 C            2.85513146        0.51062041        2.34096047
 C            2.31446238        1.79448056        2.41931025
 C            3.51052309        0.11627387        1.17970327
 C            2.76950214       -2.20384291        1.53940524
 C            3.45612180       -1.27636222        0.76197897
 C            2.20266251       -3.31496512        0.91954425
 C            0.40995261       -3.30766794        2.64979689
 C            1.05404981       -3.95927227        1.52892882
 C           -1.39308463       -1.62422078        2.50199541
 C           -0.92678748       -2.91229015        2.22136230
 C           -2.15091922       -0.94506188        1.54332453
 C           -1.47601993        1.18917206        2.47903394
 C           -2.26842234        0.45097284        1.59327681
 C            0.23293439        2.87296985        2.37883308
 C           -1.07980535        2.48309986        2.13691126
 C            2.26092200        2.63240861        1.22872942
 C            1.01996246        3.39138597        1.27377736
 C            3.43856754        0.94682801       -0.01298965
 C            2.72310129        2.13941282        0.01355350
 C            3.31712522       -1.30622068       -0.68702649
 C            3.32661176        0.06795295       -1.16724973
 C            1.98785572       -3.30216206       -0.52029912
 C            2.47693362       -2.24280093       -1.28267060
 C            0.05421006       -4.16288063        0.49641530
 C           -1.15656116       -3.48288405        0.90432759
 C            0.64296601       -3.80018323       -0.77601999
 C           -2.57462808       -1.63346825        0.40829228
 C           -1.83618985       -2.72522205       -0.03615098
 C           -3.46684107       -1.03070464       -0.46356227
 C           -3.04142274        1.12258150        0.63935887
 C           -3.68669852        0.39934881       -0.36499961
 C           -1.77705430        3.16033216        1.14777179
 C           -2.88022004        2.49660714        0.48193793
 C            0.36483849        3.72326525        0.09164388
 C           -1.01950353        3.88044392        0.13415499
 C            2.18160493        2.63009090       -1.16970359
 C            0.99684307        3.47526060       -1.12805042
 C            2.51225013        0.43552812       -2.23391024
 C            2.06475951        1.75077163       -2.32371921
 C            1.83552655       -1.92089270       -2.47656750
 C            1.86776296       -0.55277183       -2.97212815
 C           -0.14430226       -3.14351703       -1.71440011
 C           -1.45765736       -2.79493041       -1.38128340
 C            0.50587896       -2.45090383       -2.72997635
 C           -3.38905981       -1.37579361       -1.87020219
 C           -2.24351589       -2.14293317       -2.32772501
 C           -3.74596486        0.93686718       -1.72093559
 C           -3.43269563       -0.14276477       -2.63480091
 C           -2.99021780        3.07324082       -0.84611972
 C           -1.78768918        3.84958864       -1.09618731
 C           -3.18802921        2.18108154       -1.96903096
 C            0.21364030        3.19523869       -2.32620183
 C            0.79373726        2.03323164       -2.97290771
 C           -1.16352653        3.33541617       -2.29830872
 C           -1.99689571        2.25859390       -2.80747818
 C            0.57710464       -0.26681797       -3.58351500
 C           -0.22173299       -1.47840741       -3.52771193
 C           -1.59332372       -1.37495275       -3.37760409
 C           -2.20582693       -0.05895867       -3.40494541
 C           -0.01769097        0.97486032       -3.37226091
 C           -1.41178954        1.08224552       -3.28516620
