   70
C70 / DATE: 7/ 1/2024 / Origin: Program Fullerene / C70 from database
 C            1.26200377        0.12667571        5.38047862
 C            0.39491934       -1.02867150        5.53093009
 C            1.07290045       -2.16377591        4.93866074
 C            2.42461867       -0.27681953        4.60531668
 C            2.35895285       -1.71119251        4.42218568
 C            2.50144338        0.57543459        3.42767948
 C            0.54462073        1.10959544        4.59531517
 C            1.41740113        1.53535979        3.51597808
 C           -0.81249008       -0.79075184        4.75400050
 C           -0.74736320        0.55537114        4.22910185
 C            0.13808723       -2.80335068        4.02639331
 C           -0.96828576       -1.88069751        3.80961912
 C            0.65533889       -3.48603150        2.93901569
 C            2.80706229       -2.24144424        3.22154359
 C            2.07898279       -3.36287267        2.65901911
 C            2.79010657        0.00868322        2.18224383
 C            3.13442214       -1.34197910        2.11600095
 C            2.36580448        0.67086348        1.01830086
 C            0.81939925        1.92299110        2.33093785
 C            1.55099587        1.79624759        1.15515302
 C           -1.18043739        0.78191117        2.92944527
 C           -0.56278173        1.80479730        2.22853294
 C           -1.37228547       -1.58408205        2.50515201
 C           -1.72000760       -0.26726791        2.18151064
 C           -0.04179093       -3.41222465        1.66807333
 C           -1.06776757       -2.47884085        1.47833137
 C            2.24757119       -3.31383033        1.22129141
 C            2.91268660       -2.07117848        0.88011143
 C            0.95457642       -3.56324910        0.62376032
 C            2.40086898        0.00536136       -0.21402822
 C            2.45318042       -1.38714648       -0.23785678
 C            1.94242814        0.66040811       -1.36071823
 C            0.99713798        2.38179159        0.01971397
 C            1.39998372        1.94376548       -1.24182488
 C           -1.12324702        2.18407380        1.02655815
 C           -0.29501709        2.87300741        0.15924443
 C           -2.14875320        0.02758355        0.88203848
 C           -2.09261508        1.35719006        0.46053096
 C           -1.42308974       -2.15623940        0.16470122
 C           -2.13356016       -0.97426761       -0.08649803
 C            0.67727399       -2.95735751       -0.58409213
 C            1.60776391       -2.06296400       -1.11631906
 C           -0.65495783       -2.71220393       -0.85888546
 C            1.64101579       -0.10658678       -2.49039321
 C            1.27663528       -1.44372670       -2.31805892
 C            1.28929515        0.54359238       -3.67023830
 C            0.84780616        2.56727403       -2.36949578
 C            1.00911207        1.96436847       -3.61779082
 C           -0.89801378        3.46485234       -0.92749260
 C           -0.16426356        3.51063669       -2.17031527
 C           -2.56100553        1.69976177       -0.80996897
 C           -2.21452594        2.97387184       -1.26822376
 C           -2.45919661       -0.64325440       -1.40823787
 C           -2.80106864        0.67550076       -1.73734139
 C           -0.95443629       -2.39814672       -2.16701329
 C            0.14495753       -1.91877440       -2.97949840
 C           -2.05952066       -1.50868804       -2.42301394
 C            0.29022857       -0.06067859       -4.54006438
 C           -0.42891826       -1.14561256       -4.06074632
 C           -1.85300617       -0.99687057       -3.76498408
 C            0.10251261        2.26759915       -4.71838904
 C           -0.42302443        1.00694940       -5.21531438
 C           -1.16536472        3.76553525       -3.19486291
 C           -2.45184829        3.35283471       -2.64407693
 C           -1.02177575        3.15302294       -4.49486852
 C           -3.07629674        0.98956072       -3.07729296
 C           -2.50691252        0.16635207       -4.13165542
 C           -1.86843031        1.04956615       -5.09278403
 C           -3.01570923        2.36815491       -3.53109635
 C           -2.24432702        2.41023255       -4.76342954
