   70
C70 / DATE: 7/ 1/2024 / Origin: Program Fullerene / C70 from database
 C            1.36820831       -0.00088090        4.81427221
 C            2.53291875       -0.18450970        3.97652931
 C            2.51609866       -1.55355966        3.48393093
 C            0.53086069       -1.18331919        4.67670261
 C            1.25001256       -2.15080609        3.86470955
 C           -0.78818678       -0.74496698        4.24359691
 C            0.53107858        1.15624711        4.58285559
 C           -0.83636311        0.68439805        4.43041767
 C            0.81179197        2.02495224        3.44963941
 C            2.72951210        0.68902948        2.83000335
 C            1.80345478        1.68899240        2.52919030
 C            2.88433296       -1.51806643        2.07715703
 C            3.22596489       -0.14395372        1.75595016
 C            2.15190975       -2.25952756        1.14646700
 C            0.54280486       -2.86609688        2.91092367
 C            1.13456438       -3.09076976        1.59929756
 C           -1.34218400       -1.30618705        3.09294340
 C           -0.85592923       -2.54045062        2.68600737
 C           -2.06554136       -0.51148885        2.18196246
 C           -1.45027300        1.47986677        3.39847490
 C           -0.47470562        2.46237603        2.95259176
 C           -2.23522652        0.86227147        2.43344867
 C           -0.57299061        2.91567320        1.64448987
 C            1.66292509        2.10531808        1.20080156
 C            0.56772287        2.89825018        0.83808842
 C            3.03600652        0.27123472        0.45326330
 C            2.45826937        1.51512312        0.20890836
 C            2.16317999       -1.84924342       -0.19268825
 C            2.90038609       -0.70963757       -0.51346303
 C            1.19370122       -2.32094413       -1.09687320
 C            0.04291339       -3.41425506        0.70861293
 C           -1.19362139       -3.03630264        1.37726008
 C            0.15365908       -3.14381457       -0.64915110
 C           -2.50560679       -1.06640457        0.95879559
 C           -2.16072831       -2.39059369        0.62750572
 C           -3.17982327       -0.25768103        0.02241086
 C           -2.66957573        1.68883407        1.41012063
 C           -1.82169509        2.80929413        1.03874446
 C           -3.20100915        1.11611142        0.19912499
 C           -1.95193372        3.01933344       -0.39052920
 C           -2.81578636        1.97464350       -0.91252022
 C            0.46834260        3.36282452       -0.46941246
 C           -0.83680075        3.39864133       -1.11453674
 C            2.35787930        1.93671377       -1.12028832
 C            1.43674984        2.92511406       -1.45842818
 C            3.00640872       -0.31461617       -1.83200293
 C            2.86791468        1.10266315       -2.11775072
 C            1.18028505       -1.82613580       -2.41133108
 C            2.24510634       -1.02928610       -2.83128493
 C            0.01721526       -1.91684912       -3.19321937
 C           -1.02938378       -3.18356696       -1.37516369
 C           -2.25982900       -2.81582854       -0.69007353
 C           -1.07616550       -2.62116372       -2.70656690
 C           -3.42939829       -0.72332004       -1.26619278
 C           -3.08392767       -2.07898305       -1.61055563
 C           -2.40438132       -2.05902066       -2.89400873
 C           -2.54550755        1.39072885       -2.14869308
 C           -3.08162104        0.12674133       -2.39784643
 C           -2.51754064       -0.71840360       -3.43870730
 C           -0.67678652        2.90427090       -2.46796034
 C            0.75021616        2.87856842       -2.74342309
 C           -1.49273175        1.87366470       -2.93833316
 C            2.38466462        1.21968720       -3.48201612
 C            2.08820045       -0.12466496       -3.95548964
 C            1.23136634        2.05601316       -3.75175545
 C           -0.22339243       -0.99170442       -4.21153681
 C           -1.46365648       -0.23492123       -4.19496308
 C           -1.09013439        1.15971180       -4.06518369
 C            0.81857893       -0.08329080       -4.63886386
 C            0.28723198        1.26792261       -4.52438553
