   70
C70 / DATE: 7/ 1/2024 / Origin: Program Fullerene / C70 from database
 C            1.21084942       -0.27647948        5.60520940
 C            0.40357092       -1.43873984        5.28056405
 C            1.12780536       -2.21984443        4.29512963
 C            2.42283509       -0.33760518        4.80419727
 C            2.31058964       -1.47440652        3.91209704
 C            2.61978789        0.97024759        4.22468107
 C            0.47913582        0.90405058        5.17963902
 C            1.41736319        1.75353447        4.48308379
 C           -0.81005060       -0.97155989        4.63577420
 C           -0.70918845        0.46533458        4.46893201
 C            0.18970173       -2.57430539        3.24356335
 C           -1.00747947       -1.77794039        3.44550192
 C            0.66923464       -2.67278046        1.94072196
 C            2.55214991       -1.32069557        2.54886577
 C            1.97792330       -2.25386128        1.68979795
 C            2.89415164        1.06487519        2.80215093
 C            2.94675939       -0.08070812        2.01766741
 C            1.01010845        2.32933137        3.21829400
 C            2.12348314        2.17872089        2.30503061
 C           -0.99901567        0.99645811        3.21164335
 C           -0.26753035        2.08346026        2.71568015
 C           -1.55944701       -1.17541166        2.32272725
 C           -1.72213015        0.21194296        2.31145240
 C           -0.25818955       -2.58889193        0.89866631
 C           -1.40728237       -1.82323534        1.09730693
 C            0.18462823       -2.82212580       -0.39994816
 C            2.43180232       -2.28078814        0.38357506
 C            1.55764092       -2.81613895       -0.63616973
 C            2.91541844        0.08687423        0.62891443
 C            2.99060385       -1.05456728       -0.15548399
 C            1.82048167        2.22171655        0.95466987
 C            2.34811084        1.25301717        0.09145261
 C           -0.50335535        2.48279765        1.39841191
 C            0.60602847        2.79529962        0.61301410
 C           -2.17926676        0.79639569        1.13853719
 C           -1.65713257        2.03199218        0.75888895
 C           -2.07711367       -1.29420843       -0.00389012
 C           -2.67200798       -0.04391640        0.14852871
 C           -0.67685292       -2.60110649       -1.47486965
 C           -1.79332194       -1.77409023       -1.28734715
 C           -0.15171852       -2.77313373       -2.75336615
 C            2.05002582       -2.28405452       -1.88902453
 C            2.62706916       -0.99273582       -1.55931353
 C            1.21884385       -2.36002592       -2.98565357
 C            1.97405687        1.30680226       -1.26384141
 C            2.03356071        0.16095806       -2.06580471
 C            0.41249204        3.10707091       -0.71761503
 C            1.22205005        2.39798296       -1.69231445
 C           -1.95352153        2.51772919       -0.51833507
 C           -0.94011625        3.15559186       -1.23340231
 C           -3.31498344        0.53905243       -0.92717292
 C           -3.00486183        1.92636832       -1.21661196
 C           -2.49090525       -1.24680381       -2.38628918
 C           -3.35673139       -0.17156222       -2.18746383
 C           -0.90833080       -2.33362975       -3.90521671
 C           -2.13593262       -1.60547777       -3.68782755
 C            1.11494403       -1.19343297       -3.83146954
 C            1.27224527        0.06623210       -3.24464941
 C           -0.02886247       -1.46247498       -4.67621360
 C            0.44779272        2.31000760       -2.91459016
 C           -0.83015930        2.96779975       -2.67069903
 C            0.48385667        1.14653287       -3.67296610
 C           -3.10997110        2.10801026       -2.65567208
 C           -3.51802507        0.83448247       -3.22501545
 C           -1.94608882        2.56750144       -3.38979661
 C           -2.19327303       -0.61249775       -4.74863987
 C           -0.81911457       -0.34994912       -5.14089722
 C           -0.49377968        0.97521100       -4.65821859
 C           -2.81152351        0.66935563       -4.47713030
 C           -1.75983750        1.67644736       -4.52145089
