   70
C70 / DATE: 7/ 1/2024 / Origin: Program Fullerene / C70 from database
 C            1.31282076       -0.17854863        4.21404967
 C            2.56779864       -0.53600113        3.59622691
 C            2.49704326       -1.93616671        3.21106230
 C            0.46980275       -1.36287949        4.24368368
 C            1.20787107       -2.45571158        3.63488076
 C           -0.83130324       -1.00033860        3.69912286
 C            0.53955769        0.89660006        3.62802302
 C           -0.82172398        0.43199219        3.46187539
 C            1.08236259        1.68626855        2.62159044
 C            3.00316361        0.21579135        2.43625331
 C            2.32325974        1.36562876        2.04618319
 C            2.86534974       -2.02879577        1.80612730
 C            3.37448333       -0.73032459        1.40449669
 C            2.04001600       -2.73493054        0.93523054
 C            0.52998027       -3.31451257        2.78325042
 C            1.10423097       -3.61070065        1.48015779
 C           -1.43894094       -1.84009085        2.76619951
 C           -0.89103327       -3.10722886        2.56111768
 C           -2.31082507       -1.28640680        1.81426034
 C           -1.56338498        0.93308390        2.40248879
 C           -2.49992124        0.10495919        1.79744096
 C            0.20930088        2.50160060        1.90737077
 C           -1.11618867        2.07341252        1.72329417
 C            0.77029759        3.43480326        1.04773722
 C            2.63177579        1.89412598        0.79122329
 C            2.03204597        3.09559652        0.42274825
 C            3.23070150       -0.33353640        0.08352361
 C            3.13423971        1.03253278       -0.19182435
 C            1.90572359       -2.28778028       -0.38655442
 C            2.72584260       -1.25030172       -0.83897565
 C            0.82372570       -2.69665303       -1.18058195
 C            0.02560668       -4.10624663        0.65396412
 C           -1.22026820       -3.83981479        1.35878507
 C           -0.11394144       -3.58906749       -0.68932133
 C           -2.81354936       -2.08357465        0.76902159
 C           -2.13193657       -3.23846067        0.41631356
 C           -1.51529596       -3.28972306       -0.89880267
 C           -3.55562373       -1.49293254       -0.24542242
 C           -3.40830427        0.68220035        0.92462736
 C           -4.04248349       -0.14498240       -0.07439401
 C           -1.92070751        2.62919882        0.71449765
 C           -3.06311071        1.94752225        0.30165223
 C           -0.06044083        4.08556053        0.06295237
 C           -1.38598866        3.56105340       -0.16906697
 C            1.95708905        3.48037421       -0.97778191
 C            0.65418205        4.07780397       -1.20296628
 C            3.20814369        1.45104527       -1.51642732
 C            2.47400296        2.62908604       -1.94042366
 C            2.67565872       -0.89059039       -2.18262690
 C            3.07365850        0.45343197       -2.56118192
 C            0.48756167       -1.95681995       -2.30962251
 C            1.49012499       -1.23348245       -2.94586149
 C           -1.86469842       -2.30635070       -1.82260419
 C           -3.06463286       -1.62370706       -1.60917246
 C           -0.86204092       -1.70647618       -2.59619534
 C           -3.94275685        0.53551633       -1.35541805
 C           -3.32184687        1.82590217       -1.12606763
 C           -3.33380011       -0.37512662       -2.30423474
 C           -1.53237898        3.33130372       -1.59800101
 C           -0.22132547        3.49635128       -2.20566201
 C           -2.37003794        2.30488532       -2.02420803
 C            1.64224653        2.24349692       -3.07244729
 C            2.11479384        0.95065581       -3.53435965
 C            1.14807014       -0.09911311       -3.78698575
 C            0.27169951        2.50791250       -3.05116688
 C           -1.20507576       -0.66920114       -3.46214407
 C           -2.39337508        0.11822494       -3.19346823
 C           -1.98324254        1.51568255       -3.11070836
 C           -0.18416526        0.24451010       -3.93910069
 C           -0.61988293        1.59846392       -3.61765263
