   70
C70 / DATE: 7/ 1/2024 / Origin: Program Fullerene / C70 from database
 C            1.26726040       -0.03181610        4.37929090
 C            2.50427645       -0.29567864        3.68927727
 C            2.53388455       -1.71689946        3.39850307
 C            0.44502591       -1.23577441        4.29947929
 C            1.17345862       -2.20708517        3.52531510
 C           -0.85963751       -0.82199738        3.83698442
 C            0.43708905        1.05906190        3.91757018
 C           -0.91939078        0.59723985        4.11623374
 C            0.73875141        1.72657676        2.72372108
 C            2.76229016        0.40043837        2.44709458
 C            1.82953689        1.31462747        1.94205937
 C            3.19861688       -1.89023294        2.12006919
 C            3.35854990       -0.56497479        1.53893481
 C            2.75739486       -2.91892637        1.30257895
 C            0.58268440       -2.78359519        2.40682390
 C            1.44047297       -3.48025217        1.56358477
 C           -1.33135674       -1.27580606        2.60323460
 C           -0.61030299       -2.24180529        1.88435152
 C           -2.31057936       -0.51412255        1.95401610
 C           -1.92001928        1.32184650        3.51449682
 C           -2.80253589        0.61697102        2.60764539
 C           -0.27681218        2.49618239        2.14509522
 C           -1.52482899        2.50228116        2.78074788
 C           -0.17280418        2.89457133        0.80428886
 C            1.85336953        1.59615435        0.57263534
 C            0.84316685        2.37532487       -0.00039578
 C            3.15534254       -0.37962104        0.17894161
 C            2.72465426        0.87141373       -0.24543850
 C            2.85637019       -2.75591861       -0.13335033
 C            2.96749982       -1.47780112       -0.66796449
 C            0.93755500       -4.01062509        0.32071373
 C            1.89624622       -3.66551677       -0.72004686
 C           -1.03525803       -2.58532155        0.59181912
 C           -0.36139173       -3.57122167       -0.12980960
 C           -2.50258643       -0.66563810        0.57509450
 C           -1.97449224       -1.78595196       -0.06641787
 C           -3.09165156        0.35461366       -0.19133025
 C           -3.47340008        1.65139653        1.84821240
 C           -2.71230612        2.88076260        2.04883151
 C           -3.63130762        1.47673046        0.42470551
 C           -1.22095274        3.58374675        0.19650539
 C           -2.55201789        3.51105314        0.76390068
 C           -3.36904059        2.76407002       -0.17594954
 C           -1.40024111        3.45833211       -1.23384966
 C           -2.67112809        2.77749305       -1.44105895
 C            0.84221532        2.62213218       -1.38307611
 C           -0.33043445        3.05369814       -2.01883131
 C            2.78290465        1.14475463       -1.60089321
 C            1.90706026        2.15532127       -2.15380281
 C            2.53389607       -1.24654320       -1.97505618
 C            2.78231939        0.01325490       -2.51061206
 C            1.13851723       -3.21739636       -1.87184813
 C           -0.26365832       -3.44972998       -1.57081643
 C            1.49650562       -2.03014181       -2.50828274
 C           -2.17593897       -1.94337522       -1.43871184
 C           -1.20865314       -2.68646437       -2.22907942
 C           -2.88169650        0.39142673       -1.57305927
 C           -2.65648522        1.62056517       -2.21293185
 C           -2.59234408       -0.79776910       -2.22927215
 C           -0.66228496        2.51648539       -3.26068018
 C           -1.83313586        1.66203786       -3.33350617
 C            1.69384516        1.80476276       -3.54807783
 C            2.09944756        0.41889393       -3.71967308
 C            0.36536684        1.94110405       -4.09857143
 C            0.57835271       -1.46080530       -3.39621410
 C           -0.77025103       -1.80676378       -3.29781175
 C           -1.78816699       -0.78017140       -3.44074101
 C           -1.44330978        0.43642035       -4.00599587
 C            0.93664214       -0.33660942       -4.13239019
 C           -0.09016835        0.62060699       -4.50720983
