   70
C70 / DATE: 7/ 1/2024 / Origin: Program Fullerene / C70 from database
 C            1.02270159       -0.10790509        4.62179718
 C            2.26503829       -0.40763816        3.94641143
 C            2.19414655       -1.78694707        3.49442909
 C            0.18138734       -1.29307648        4.54225676
 C            0.81720612       -2.20837006        3.61588292
 C           -1.16843079       -0.85427322        4.26670590
 C            0.23169547        1.01143150        4.15363881
 C           -1.15379814        0.59702671        4.19304356
 C            0.65113271        1.75778762        3.05628974
 C            2.64875456        0.39959067        2.80502075
 C            1.84084605        1.44439189        2.38219541
 C            2.80306181       -1.84762367        2.18113647
 C            3.18677194       -0.49398541        1.80119620
 C            2.22901605       -2.65682762        1.20659101
 C            0.15596768       -2.60288028        2.45508657
 C            0.91453279       -3.11088440        1.39421559
 C           -1.82420380       -1.33639187        3.06893776
 C           -1.17705259       -2.22730525        2.22297080
 C           -2.01145616        0.99146523        3.08908084
 C           -2.52414470       -0.21879906        2.47116258
 C           -0.29965936        2.52856712        2.39118689
 C           -1.59867535        2.02067008        2.25006018
 C            0.16712117        3.44692491        1.45969257
 C            2.02876804        1.93129194        1.09100490
 C            1.38784484        3.11178699        0.74896775
 C            3.10584573       -0.13939940        0.45297762
 C            2.47256598        1.05983727        0.08702670
 C            2.71228181       -2.48999826       -0.08577320
 C            3.18935882       -1.17198799       -0.47165503
 C            2.00223099       -3.06488206       -1.21222465
 C            0.23894991       -3.73035953        0.34521213
 C            0.83543030       -3.77115655       -0.97960619
 C           -1.71322758       -2.41736007        0.95348879
 C           -1.16995230       -3.43251497        0.17953400
 C           -2.72232575       -0.21667567        1.09362683
 C           -2.42676268       -1.36751611        0.34900299
 C           -2.24450488        2.14674730        1.02011753
 C           -2.81970926        1.01064188        0.44016080
 C           -0.76569220        4.00540823        0.50234413
 C           -1.98730293        3.27448969        0.24614848
 C            1.20134168        3.44601201       -0.64585046
 C           -0.06489708        4.15210515       -0.75922881
 C            2.13169690        1.30094766       -1.25934936
 C            1.53891019        2.52141085       -1.62683672
 C            2.79840366       -0.94116660       -1.84159521
 C            2.06813370       -2.11069852       -2.31124984
 C            2.36526709        0.31442918       -2.23276858
 C            0.98204081       -1.93271145       -3.17235003
 C           -0.23651323       -3.69597047       -1.95236327
 C           -1.48265626       -3.50291463       -1.22797264
 C           -0.17392688       -2.69210049       -3.00027163
 C           -2.69293070       -1.37967383       -1.03045614
 C           -2.18196558       -2.39280725       -1.83349729
 C           -1.46992116       -2.03205340       -3.04879294
 C           -3.19929757        1.02192582       -0.89482169
 C           -3.08534770       -0.20347084       -1.66263661
 C           -2.17705831        3.22808171       -1.19365817
 C           -0.97823792        3.77019663       -1.82109423
 C           -2.81477051        2.12950136       -1.75288860
 C            0.92298708        2.65393382       -2.87093864
 C           -0.44670296        3.13853698       -2.93644635
 C            1.71981648        0.38442404       -3.46036595
 C            0.88366972       -0.73174019       -3.86965179
 C            1.05118279        1.60151331       -3.84942173
 C           -1.54488653       -0.72178421       -3.51231783
 C           -2.50258688        0.12919465       -2.95517907
 C           -2.34086880        1.57664470       -3.01260991
 C           -1.22553872        2.12620383       -3.63010471
 C           -0.43374573       -0.18986173       -4.16287432
 C           -0.28735564        1.24859113       -4.30175008
