   70
C70 / DATE: 7/ 1/2024 / Origin: Program Fullerene / C70 from database
 C            1.26821494        0.00188355        4.95862936
 C            2.51267858       -0.19588219        4.24592090
 C            2.51755149       -1.55165974        3.72259074
 C            0.43619859       -1.16960181        4.73625560
 C            1.23292864       -2.15854671        4.03025475
 C           -0.81265378       -0.72296034        4.13763947
 C            0.47174690        1.16990559        4.64760525
 C           -0.85639039        0.71577853        4.25914350
 C            0.92681129        2.09195734        3.62003248
 C            2.85453384        0.69795638        3.15256670
 C            2.11439966        1.85792792        2.91901262
 C            2.95610972       -1.49720146        2.33420350
 C            3.26069581       -0.11713912        2.01617349
 C            2.29993421       -2.26814138        1.38702196
 C            0.61611293       -2.91939168        3.04845804
 C            1.33294427       -3.17715941        1.81408974
 C           -1.24129271       -1.32255948        2.95623167
 C           -0.74219567       -2.58325744        2.65201607
 C           -1.81106166       -0.54915776        1.93395316
 C           -1.26570378        1.49192322        3.10890604
 C           -0.25793369        2.50786283        2.88634696
 C           -1.79682351        0.84950892        1.99760424
 C           -0.10862530        2.99934970        1.59853271
 C            2.28324951        2.49013621        1.69193789
 C            1.17998543        3.25274319        1.13844554
 C            3.02118952        0.36364240        0.73132064
 C            2.86157082        1.73458526        0.59008680
 C            2.29313641       -1.84689619        0.05698714
 C            2.49551577       -0.49301602       -0.24616643
 C            1.72072562       -2.68618463       -0.89079443
 C            0.34006934       -3.64491891        0.86670650
 C           -0.93960875       -3.12594980        1.32221930
 C            0.63194269       -3.55867434       -0.48377433
 C           -2.19998468       -1.15937502        0.73821351
 C           -1.73315435       -2.43950706        0.41396126
 C           -2.77975625       -0.38040810       -0.26285703
 C           -1.89105523        1.57867441        0.81249594
 C           -1.10862813        2.73075973        0.66321364
 C           -2.49980492        0.99100251       -0.29991144
 C           -1.00176463        3.32495520       -0.58632517
 C            1.41299115        3.34907401       -0.29135597
 C            2.32315692        2.27160148       -0.64206046
 C            0.32737506        3.57654908       -1.11969479
 C            2.07779934        0.02414374       -1.48733793
 C            1.97090195        1.40972133       -1.67325264
 C            1.40128926       -2.17159096       -2.20594991
 C            1.66896594       -0.84444376       -2.50911672
 C           -0.46084297       -3.32647166       -1.41104366
 C           -1.66237209       -2.81785202       -0.92724586
 C            0.11954194       -2.73646108       -2.60274353
 C           -3.23457518       -1.03061678       -1.40308340
 C           -2.53034949       -2.22204863       -1.82946652
 C           -3.55225730       -0.26383216       -2.58803992
 C           -2.61640714        1.71799574       -1.49395049
 C           -1.82695349        2.84665404       -1.67816797
 C           -3.18482034        1.13276250       -2.62237659
 C            0.34961163        3.00473869       -2.45186833
 C            1.17721787        1.91169289       -2.70502123
 C           -1.03225935        2.96213945       -2.89073404
 C            1.08597915       -0.32843565       -3.66376604
 C            0.89901296        1.10201277       -3.79546475
 C           -0.69788007       -2.00312904       -3.45595828
 C           -2.07018265       -1.97473907       -3.18665808
 C           -2.91481639       -0.91944045       -3.72157956
 C           -0.10286392       -0.98000319       -4.19557647
 C           -2.58351127        1.38976737       -3.92230793
 C           -1.36026541        2.17166318       -3.98200048
 C           -0.32459817        1.32688609       -4.55381227
 C           -2.32795516        0.10679505       -4.55694033
 C           -0.91274133        0.03190275       -4.85237412
