   70
C70 / DATE: 7/ 1/2024 / Origin: Program Fullerene / C70 from database
 C            1.28071380       -0.01673899        4.46302127
 C            2.60465116       -0.24991573        3.92001790
 C            2.63176499       -1.60399408        3.39926138
 C            0.46565217       -1.18583996        4.16694295
 C            1.27145282       -2.11574447        3.40924175
 C           -0.77392265       -0.72582742        3.58937021
 C            0.54402468        1.15836497        4.03258047
 C           -0.77686459        0.72398226        3.61620914
 C            1.19047515        2.13706629        3.29272977
 C            3.10303437        0.63250776        2.87948678
 C            2.47687097        1.84982762        2.66206587
 C            3.34130217       -1.57874675        2.13441834
 C            3.45893570       -0.18582773        1.73110612
 C            2.97059227       -2.50220260        1.17511455
 C            0.76593648       -2.66762946        2.23342055
 C            1.68682396       -3.17447626        1.32373209
 C           -1.27846262       -1.35213200        2.45859782
 C           -0.51573752       -2.31754327        1.77943957
 C           -2.30910549       -0.70699778        1.78343280
 C           -1.43635008        1.38788002        2.58490927
 C           -2.40906654        0.68577496        1.87465422
 C            0.41682970        2.92759977        2.35156234
 C           -0.88182155        2.54335875        2.01803020
 C            2.40959644        2.36310817        1.30833443
 C            1.32327300        3.32278066        1.29120414
 C            3.05187178        0.19851144        0.44727690
 C            2.56568465        1.49094412        0.22959317
 C            3.05656540       -2.11580977       -0.21567532
 C            2.92993625       -0.76938440       -0.55436911
 C            1.24856412       -3.55103205       -0.00507715
 C            2.27410672       -3.09665573       -0.93535311
 C           -0.98044745       -2.81684079        0.55111262
 C           -0.09101885       -3.41258681       -0.35237526
 C           -2.96488929       -1.39362888        0.77350575
 C           -2.27238479       -2.49496312        0.13166339
 C           -3.69284820       -0.66239217       -0.24826394
 C           -3.22163402        1.39153248        0.99617223
 C           -3.88900686        0.70049211       -0.09465332
 C           -1.46714013        3.08794032        0.87010437
 C           -2.74227380        2.66691715        0.49913040
 C            0.78647355        3.68108685        0.07007371
 C           -0.65890965        3.73672026       -0.06802175
 C            1.99107057        1.82332167       -0.99918381
 C            1.29357285        3.02775951       -1.12210612
 C            2.37014104       -0.43153225       -1.78994871
 C            1.90914374        0.86783333       -2.01474708
 C            1.90737646       -2.81105428       -2.23723186
 C            2.06719864       -1.44466803       -2.70736754
 C           -0.42625033       -3.50319053       -1.70375927
 C            0.61167095       -3.27570142       -2.69402090
 C           -2.57987674       -2.43421598       -1.28825755
 C           -3.25895716       -1.17538501       -1.53739298
 C           -1.63901913       -2.87741778       -2.19741502
 C           -2.76517526       -0.29605053       -2.50289018
 C           -3.81494430        1.54924694       -1.26927047
 C           -3.16522579        2.79121612       -0.88557135
 C           -3.14906456        1.04340764       -2.45739577
 C           -0.94752848        3.61458466       -1.49040292
 C            0.27528654        3.17372549       -2.14715416
 C           -2.17523517        3.10925594       -1.89679822
 C           -2.22922849        2.07033061       -2.91481344
 C            1.17757733        1.14912074       -3.16972803
 C            0.21542240        2.23685979       -3.16540260
 C           -1.07041298        1.68759740       -3.57426523
 C            1.06003885       -1.21935282       -3.73167319
 C            0.10746097       -2.31196429       -3.65588738
 C           -1.27128161       -2.01298641       -3.30717123
 C           -1.69689086       -0.68565229       -3.31704607
 C            0.57398730        0.06273577       -3.91509495
 C           -0.86410501        0.28269026       -3.88173145
