   70
C70 / DATE: 7/ 1/2024 / Origin: Program Fullerene / C70 from database
 C            1.54147648        0.05985056        4.76104677
 C            0.76390527       -1.16316047        4.72215785
 C            1.36083633       -2.04728884        3.73509741
 C            2.64948487       -0.09462991        3.83601068
 C            2.61561649       -1.44622145        3.31051370
 C            2.60112237        1.00770783        2.89327711
 C            0.69274812        1.12671790        4.25946976
 C            1.35127980        1.71457833        3.11559261
 C           -0.62572157       -0.78951534        4.54450280
 C           -0.63924833        0.59002639        4.07758572
 C           -1.45189621       -1.69709776        3.90268602
 C            0.51912404       -2.65230508        2.79926582
 C           -0.83049004       -2.76175409        3.12539157
 C            0.91901066       -2.73546832        1.45700331
 C            3.04366654       -1.64339153        2.00909682
 C            2.24340188       -2.47410479        1.12883993
 C            2.99884388        0.77837428        1.57757203
 C            3.45751690       -0.48788305        1.22659884
 C            2.46226287        1.57933833        0.57190639
 C            0.59677777        2.05491441        2.00368520
 C            1.27188116        2.26973704        0.81599297
 C           -1.34105043        0.89791040        2.91178418
 C           -0.76419911        1.74077186        1.94430139
 C           -2.53430647       -1.18385986        3.08828024
 C           -2.44367488        0.11024647        2.57585579
 C           -1.77738728       -3.16172661        2.10534658
 C           -2.91683402       -2.26424674        2.20003218
 C           -0.03035577       -2.82625180        0.42908857
 C           -1.34289120       -3.16787235        0.72545244
 C            0.27205084       -2.35471694       -0.85348778
 C            2.57487766       -2.09145060       -0.23004021
 C            3.39521327       -0.88950737       -0.16620687
 C            1.60823550       -2.17281479       -1.22526107
 C            2.86337024        1.37185192       -0.74963662
 C            3.21069076        0.07644140       -1.15024249
 C            2.45344375        2.30370244       -1.70248848
 C            0.57566413        2.81011322       -0.25093077
 C            1.30988923        3.13643124       -1.38021355
 C           -1.47140750        2.03813708        0.76954070
 C           -0.79597412        2.54879741       -0.34963330
 C           -3.19823984        0.44272465        1.45718922
 C           -2.75544413        1.53586397        0.61012728
 C           -3.32799102       -1.92980300        0.85343395
 C           -2.40963579       -2.58693963       -0.06616657
 C           -3.69412133       -0.61902054        0.58851488
 C           -0.76834828       -1.98065492       -1.72198944
 C           -2.08870100       -1.94443154       -1.25748385
 C           -0.48209958       -1.43856472       -2.97857414
 C            1.90082116       -1.54005089       -2.42632355
 C            2.78457136       -0.38515367       -2.39232836
 C            0.83984275       -1.25670261       -3.36731120
 C            2.31172087        1.90457767       -3.09127160
 C            2.34153630        0.55370531       -3.40473868
 C            1.22436434       -0.06313068       -4.10947591
 C            0.62097402        3.45738590       -2.60741121
 C            1.30221402        2.76112971       -3.68909643
 C           -1.43693991        2.57863098       -1.60202617
 C           -0.78984759        3.15190547       -2.70036938
 C           -3.24787897        1.26793919       -0.72549359
 C           -3.58525613       -0.14413221       -0.77405866
 C           -2.94080503       -0.93898625       -1.71617194
 C           -2.58145610        1.80156950       -1.81912229
 C           -1.48990526       -0.77209237       -3.67008296
 C           -2.67283893       -0.35576358       -2.94490342
 C           -2.69974887        1.09307646       -3.01263430
 C            0.24072258        0.72588759       -4.69460936
 C            0.28556797        2.17082066       -4.53826940
 C           -1.00619704        2.59753750       -4.02593377
 C           -1.14611123        0.31803593       -4.57279131
 C           -1.91772320        1.48425531       -4.16546208
