   70
C70 / DATE: 7/ 1/2024 / Origin: Program Fullerene / C70 from database
 C            1.54511726        0.01682741        4.60644920
 C            0.72186143       -1.17232437        4.49423912
 C            1.21956545       -1.96774840        3.38482427
 C            2.55477828       -0.04862455        3.56738479
 C            2.40897854       -1.31291338        2.87041085
 C            2.47109003        1.16801660        2.78043773
 C            0.69905749        1.16279306        4.32325071
 C            1.28050326        1.87902488        3.20995757
 C           -0.66051734       -0.74409263        4.46142870
 C           -0.66229452        0.69094630        4.19392977
 C           -1.56625227       -1.54135618        3.78045622
 C            0.30561619       -2.50994784        2.48329152
 C           -1.05630977       -2.49846063        2.80374566
 C            0.69428400       -2.71664831        1.15518843
 C            2.62815198       -1.31861457        1.50104185
 C            1.92576753       -2.22229644        0.70586493
 C            2.72331129        1.07433224        1.41351352
 C            3.12660129       -0.16097983        0.90882050
 C            2.10634445        1.98341527        0.54493930
 C            0.44884208        2.38755183        2.22597448
 C            1.03636081        2.74784829        1.01976848
 C           -1.45750728        1.19191782        3.16217094
 C           -0.92584001        2.11017821        2.24558303
 C           -2.72409859       -0.89885729        3.19132493
 C           -2.62008437        0.50207770        2.83007289
 C           -2.03978937       -2.60819579        1.73844637
 C           -3.08508303       -1.63798556        1.99581316
 C           -0.26491944       -3.11658421        0.22642603
 C           -1.59405341       -2.75939099        0.43497751
 C            0.13720122       -3.46493577       -1.05495385
 C            2.26644629       -2.31931446       -0.64709664
 C            1.44393104       -3.03596387       -1.51614745
 C            3.52541913       -0.22921428       -0.41435374
 C            3.20728951       -1.42975898       -1.16601110
 C            2.32001372        1.85217541       -0.83310038
 C            3.23602775        0.90280269       -1.27346349
 C            1.43499251        2.44748426       -1.74166825
 C            0.28288707        3.50439069        0.13744543
 C            0.59177428        3.45420867       -1.27731800
 C           -1.69528133        2.49824607        1.14414517
 C           -1.16084644        3.44927340        0.27630074
 C           -3.18155139        0.65022413        1.49998860
 C           -3.39891174       -0.67766227        0.95399379
 C           -2.67217029        1.62471045        0.65904342
 C           -2.30097427       -2.13778411       -0.59689652
 C           -2.96894997       -0.93971923       -0.34380631
 C           -0.80350121       -3.27854978       -2.14443988
 C           -1.97343544       -2.45307421       -1.90645482
 C            1.31422664       -2.62479849       -2.91060991
 C           -0.08226198       -2.72528891       -3.27659266
 C            3.14204432       -1.04996671       -2.56525760
 C            3.13955071        0.40335322       -2.62666916
 C            2.04151657       -1.53869119       -3.37105230
 C            1.23452845        1.89005104       -3.01858974
 C            2.01166036        0.81525737       -3.42999982
 C            1.34024419       -0.38214601       -3.91836313
 C            0.00783924        2.03823155       -3.65624159
 C           -0.63444694        3.76286690       -1.98745865
 C           -1.73302608        3.59334533       -1.05061346
 C           -0.95495717        3.00559083       -3.17498956
 C           -2.79720118        1.43611690       -0.71593699
 C           -2.80912436        0.13056694       -1.22962309
 C           -2.56986464        2.52206950       -1.54986874
 C           -2.19863812        2.29119948       -2.92693202
 C           -1.98489331       -1.39834852       -2.90348077
 C           -0.77973543       -1.52912287       -3.71116114
 C           -0.05504529       -0.38182811       -4.03621272
 C           -0.72440163        0.84142309       -4.02879119
 C           -2.41825444       -0.12329440       -2.55345394
 C           -2.01960235        0.92596564       -3.37304097
