   70
C70 / DATE: 7/ 1/2024 / Origin: Program Fullerene / C70 from database
 C            1.29113340       -0.09103414        4.20247464
 C            2.62063285       -0.41406029        3.74530025
 C            2.62664738       -1.81447911        3.35494032
 C            0.47044724       -1.28671387        4.06474912
 C            1.24993249       -2.28130137        3.36677506
 C           -0.79198207       -0.87997484        3.49711943
 C            0.57991113        0.99608106        3.55764752
 C           -0.79962044        0.56830285        3.44562391
 C            1.15504921        1.67918155        2.48317278
 C            3.17447036        0.34794755        2.64742307
 C            2.50211675        1.46396763        2.14769003
 C            3.39004935       -1.93379042        2.12312359
 C            3.75003384       -0.58972736        1.69842657
 C            2.95950313       -2.84337757        1.17146768
 C            0.74029127       -2.87818437        2.21610257
 C            1.65952178       -3.46817373        1.35099342
 C           -1.31806119       -1.56987637        2.41230873
 C           -0.54756993       -2.54461340        1.74958384
 C           -2.39072675       -0.97651352        1.75023515
 C           -1.59414677        1.16935991        2.48567488
 C           -2.58804727        0.40258434        1.88200400
 C            0.29987576        2.34875500        1.59535759
 C           -1.08104164        2.26187410        1.79094457
 C            0.79483324        2.89741521        0.40846539
 C            2.99943346        2.00288617        0.96687526
 C            2.15827480        2.86221639        0.16035851
 C            3.72437214       -0.24426146        0.34909364
 C            3.71554741        1.11587515        0.06072176
 C            3.05713872       -2.48554152       -0.23115394
 C            3.18545941       -1.14482849       -0.58159375
 C            1.22971842       -3.92675230        0.05213840
 C            2.09985975       -3.31159481       -0.94105680
 C           -1.02967161       -3.11700149        0.55761011
 C           -0.13370093       -3.67759935       -0.34808246
 C           -3.00743396       -1.67314164        0.72347027
 C           -2.25461698       -2.70304659        0.04070118
 C           -3.79404831       -0.96018234       -0.27097531
 C           -3.52906049        1.05479443        1.09208772
 C           -4.08884655        0.38015243       -0.06585063
 C           -1.93495292        2.96652570        0.94975607
 C           -3.26853199        2.43465682        0.72175444
 C           -0.08563819        3.22920349       -0.62936266
 C           -1.42449759        3.45088042       -0.32000102
 C            0.29974158        3.04516039       -1.96643809
 C            2.60340177        2.73165676       -1.20905523
 C            3.44314081        1.54865062       -1.29067792
 C            1.59578206        2.62278701       -2.23933336
 C            2.54128646       -0.67157794       -1.73529217
 C            2.80360964        0.61237091       -2.18861986
 C            1.76262675        1.33355812       -2.89463511
 C            1.25225025       -2.69407579       -1.94227021
 C           -0.09930227       -3.15471074       -1.70325198
 C            1.44719534       -1.35908662       -2.26695344
 C           -2.33736999       -2.42211523       -1.38432890
 C           -3.36791196       -1.41718648       -1.58504485
 C           -1.15682552       -2.36063333       -2.12139632
 C           -3.22248847       -0.50557601       -2.62230304
 C           -4.05972775        1.31054501       -1.18478370
 C           -3.58502900        2.59187599       -0.68616229
 C           -2.45023170        3.23345661       -1.32884924
 C           -3.64814823        0.87353874       -2.43911693
 C           -0.66255974        2.69937055       -2.90992581
 C           -2.07327117        2.82721014       -2.59951890
 C           -2.76606678        1.71453678       -3.23229052
 C            0.61487475        0.66284883       -3.30784967
 C            0.39633732       -0.64888200       -2.85685872
 C           -0.89110370       -1.21733831       -2.87842323
 C           -1.97348849       -0.48978590       -3.36531703
 C           -0.47221032        1.46120106       -3.64713146
 C           -1.76656934        0.85531094       -3.84826688
