   70
C70 / DATE: 7/ 1/2024 / Origin: Program Fullerene / C70 from database
 C            1.38202427       -0.20047039        4.03839436
 C            2.53146877       -0.38038886        3.16948362
 C            2.43946673       -1.71094692        2.58404544
 C            0.52239376       -1.35932686        3.88971589
 C            1.23439589       -2.34413601        3.09707716
 C           -0.77481150       -0.89878139        3.42232970
 C            0.56276037        0.98065061        3.87138010
 C           -0.76283678        0.55051726        3.44942009
 C            1.12539114        2.08781291        3.25989955
 C            2.96927606        0.68239090        2.37879864
 C            2.36967133        1.93868599        2.51176194
 C            3.69442662        0.39860745        1.22157358
 C            2.82137804       -1.89091335        1.25408996
 C            3.70277923       -0.96285857        0.71002588
 C            2.07351404       -2.73599319        0.41580905
 C            0.49777859       -3.15354695        2.25272948
 C            1.06590958       -3.52391219        0.97276381
 C           -1.37109418       -1.55769795        2.35282845
 C           -0.89933285       -2.82249440        2.01126304
 C           -2.11684424       -0.83197870        1.41943642
 C           -1.41654551        1.25468820        2.44452254
 C           -2.21115085        0.56502361        1.52331390
 C            0.26408001        2.97545810        2.50132142
 C           -1.03032123        2.56931892        2.17973172
 C            2.28741860        2.81330489        1.35104493
 C            1.08160372        3.60993420        1.48032630
 C            3.59488132        1.29410699        0.07774313
 C            2.65143342        2.31225670        0.10743282
 C            3.87175588       -0.89287777       -0.72287557
 C            3.73282591        0.49747503       -1.12430525
 C            2.21288368       -2.67587330       -0.98289593
 C            2.99348551       -1.67765413       -1.55547882
 C            1.23340630       -3.23605658       -1.80244415
 C           -0.04356021       -3.95798185        0.14859033
 C           -1.25737480       -3.39562072        0.72941057
 C            0.10878186       -3.95287683       -1.22602106
 C           -2.68037792       -1.49644892        0.32483106
 C           -2.16120210       -2.72708275       -0.08837041
 C           -3.56597924       -0.81925435       -0.50730407
 C           -3.00558614        1.28789425        0.62763398
 C           -3.73953617        0.61259338       -0.34349081
 C           -1.73291615        3.30474754        1.23373565
 C           -2.75903887        2.64972042        0.44316500
 C            0.45919673        4.07500326        0.33283021
 C           -0.98692607        4.18026361        0.34571351
 C            1.78586713        2.48030579       -0.97974633
 C            0.84116951        3.49737870       -0.94806649
 C            2.68288481        0.57009002       -2.12074845
 C            2.37241781       -0.78323005       -2.52199421
 C            1.64289322        1.46187290       -1.92321712
 C            0.72826111       -2.43327947       -2.90516687
 C            1.09261499       -1.09184123       -2.96764564
 C           -1.05514802       -3.68455775       -2.05159424
 C           -2.22065554       -3.07750629       -1.43478118
 C           -0.64281332       -2.81330704       -3.14112153
 C           -3.56209010       -1.10818548       -1.93544339
 C           -2.74400260       -2.12568746       -2.39319300
 C           -1.63219577       -1.76761594       -3.26090904
 C           -3.82529775        1.19485019       -1.67067185
 C           -3.48598139        0.16303013       -2.62625633
 C           -2.68539122        3.18714811       -0.91208336
 C           -1.45558411        3.94382938       -1.00433864
 C           -0.35833570        3.36751559       -1.75878153
 C           -2.99366051        2.34160297       -1.96290765
 C            0.38629594        1.18650706       -2.46766964
 C            0.09399248       -0.10072274       -2.95655773
 C           -1.22339691       -0.43587318       -3.31191924
 C           -2.22199943        0.52929078       -3.24446347
 C           -0.58824943        2.18987302       -2.47059635
 C           -1.90054778        1.87323069       -2.81111389
