   70
C70 / DATE: 7/ 1/2024 / Origin: Program Fullerene / C70 from database
 C            1.66594874       -0.26667349        4.84624977
 C            0.81918006       -1.44568265        4.91068452
 C            1.26105810       -2.36633405        3.88163684
 C            2.62978137       -0.46774537        3.77905430
 C            2.42274590       -1.78925763        3.22525467
 C            2.54244651        0.66277664        2.87627422
 C            0.83222516        0.86104971        4.47013839
 C            1.42479735        1.48898347        3.30596773
 C           -0.53095231       -1.04165285        4.57057279
 C           -0.53491561        0.39709963        4.36233866
 C            0.11281295       -2.71074307        3.05203976
 C           -1.00073865       -1.88757076        3.48013929
 C            0.33389884       -2.88228983        1.69107236
 C            2.50844761       -1.94150163        1.84901553
 C            1.65549211       -2.86586012        1.26196461
 C            2.70144697        0.43438747        1.51336447
 C            2.93719810       -0.86629047        1.06216656
 C            2.14832169        1.34794890        0.62684878
 C            0.57827834        2.00389413        2.32962072
 C            1.07297967        2.14288069        1.04027175
 C           -1.30782360        0.87956153        3.31619363
 C           -0.80403683        1.89929747        2.50048041
 C           -1.80791955       -1.29893957        2.51448744
 C           -2.22689566        0.00407883        2.75455475
 C           -0.66644400       -2.53311532        0.77352052
 C           -1.73907371       -1.74011176        1.18589798
 C           -0.40099437       -2.68802925       -0.59090818
 C            1.91273366       -3.21294454       -0.04536346
 C            0.78098086       -3.34095175       -0.93717318
 C            3.06951969       -1.09120394       -0.31355416
 C            2.87569056       -2.40211678       -0.75518076
 C            2.41913044        1.20635470       -0.72874383
 C            2.87795453       -0.02456747       -1.20829931
 C            1.92759756        2.16647140       -1.60898471
 C            0.28535778        2.78366598        0.09157672
 C            0.81244392        2.99085137       -1.18025555
 C           -1.64851095        2.39643707        1.50026817
 C           -1.08921318        2.90799330        0.31684705
 C           -3.16949931        0.54391908        1.90847952
 C           -2.95788919        1.91014720        1.48749403
 C           -2.54131463       -1.10569129        0.23197015
 C           -3.48158148       -0.18992126        0.70154983
 C           -1.04502031       -1.85834996       -1.52452058
 C           -2.12479119       -1.06003437       -1.10937097
 C           -0.58756138       -1.78683376       -2.85476232
 C            1.31244135       -3.21863991       -2.27573575
 C            2.66350222       -2.67957142       -2.15842276
 C            0.60395654       -2.40189789       -3.22585853
 C            2.93233361       -0.24749833       -2.58760580
 C            2.79186667       -1.59468299       -3.10156381
 C            1.60032291       -1.61102183       -3.92861464
 C            1.73076529        1.83900444       -3.01052602
 C            2.17977821        0.61422962       -3.48381996
 C            1.27550428       -0.23453144       -4.25123449
 C           -0.07382973        3.17296995       -2.31675689
 C            0.41403191        2.32600894       -3.39561043
 C           -1.91949736        3.33903457       -0.72235756
 C           -1.43841615        3.28882935       -2.09281878
 C           -3.79849556        2.09722293        0.32581439
 C           -4.07827123        0.76627128       -0.20332356
 C           -3.30296903        2.91070200       -0.75847131
 C           -2.74868711       -0.18926598       -2.02392542
 C           -2.36412354        2.45593629       -2.85201070
 C           -3.66887325        0.75666171       -1.58320463
 C           -3.47749624        2.14258069       -1.97649926
 C           -1.03954446       -0.76316112       -3.67586929
 C           -0.06702312        0.10719177       -4.32382152
 C           -0.46749564        1.47508603       -4.05247613
 C           -2.14650009        0.05510673       -3.25032610
 C           -1.85657302        1.43004900       -3.63583999
