   70
C70 / DATE: 7/ 1/2024 / Origin: Program Fullerene / C70 from database
 C            1.53530693        0.05073333        4.67172923
 C            0.73108268       -1.12316096        4.40123173
 C            1.38498868       -1.89985696        3.35948268
 C            2.69818827       -0.00776672        3.80795331
 C            2.56953878       -1.17135071        2.94550868
 C            2.83374722        1.29068106        3.18262692
 C            0.75587590        1.21107257        4.27237604
 C            1.56034538        1.97740187        3.34560763
 C           -0.62436477       -0.67213763        4.15783938
 C           -0.54150854        0.74261389        3.82946394
 C           -1.42139001       -1.47464486        3.36319960
 C            0.58337347       -2.49689220        2.39258452
 C           -0.78422031       -2.55827744        2.63090129
 C            1.03079306       -2.56562066        1.07210200
 C            2.83824906       -1.02641492        1.58769624
 C            2.12163764       -1.78583546        0.65795518
 C            3.43672767        1.34179997        1.93618613
 C            3.52433737        0.11256215        1.15627633
 C            3.02496758        2.38599532        1.01630925
 C            0.95881697        2.52386059        2.21662575
 C            1.79253428        3.00759992        1.21159544
 C           -1.03730468        1.18461515        2.60207460
 C           -0.36858300        2.19401132        1.90046301
 C           -2.32234696       -0.83820098        2.42281706
 C           -2.02851125        0.43886273        1.95841308
 C           -1.66917381       -2.89645245        1.53790613
 C           -2.68889998       -1.85942934        1.46620218
 C            0.23794610       -3.20681967        0.11187292
 C           -1.13801461       -3.37122694        0.34617204
 C            0.75923853       -3.35991393       -1.17268425
 C            2.33126048       -1.55812193       -0.70396272
 C            1.74531189       -2.40502926       -1.63295131
 C            3.47955657        0.48575752       -0.24973587
 C            3.38722025        1.93346121       -0.31566233
 C            2.73087040       -0.29168019       -1.12238933
 C            2.76512176        2.52121461       -1.40519964
 C            1.22477225        3.70734125        0.15656968
 C            1.84898485        3.61613479       -1.15279731
 C           -0.92960032        2.68635370        0.72077379
 C           -0.20952364        3.61258911       -0.03625289
 C           -2.44568023        0.80429477        0.67753740
 C           -2.02229517        2.02949679        0.14985199
 C           -3.14211470       -1.47632110        0.21222912
 C           -3.15085608       -0.11827166       -0.11757257
 C           -2.02458148       -3.43535264       -0.72580123
 C           -3.06635597       -2.42532882       -0.80811638
 C           -0.11689637       -3.63991868       -2.29569837
 C           -1.53953971       -3.69323260       -2.06344114
 C            1.23484201       -1.81672259       -2.85698052
 C            0.13048226       -2.62582826       -3.31091777
 C            2.09777594        0.29742401       -2.22198544
 C            2.15721708        1.66920811       -2.41545882
 C            1.14761751       -0.43327432       -2.92598657
 C            0.79561363        3.55484117       -2.14752887
 C           -0.46881484        3.74560781       -1.46256280
 C            0.98056150        2.34322498       -2.93111837
 C           -2.49992642        2.46410623       -1.08283794
 C           -1.58356018        3.12214098       -1.99147679
 C           -3.59216690        0.24590656       -1.38542734
 C           -3.29402861        1.56705497       -1.89407567
 C           -3.18774460       -2.01792179       -2.19947289
 C           -2.17392682       -2.73641982       -2.95547173
 C           -1.12362186       -1.97188934       -3.60817175
 C           -3.38950411       -0.67729440       -2.48634310
 C           -0.05433612        0.18832451       -3.30744695
 C           -0.14672025        1.59106784       -3.26193160
 C           -1.39220505        2.19730217       -3.09588246
 C           -2.59164732        1.39597166       -3.16092193
 C           -1.20138179       -0.58099869       -3.58054204
 C           -2.46355744       -0.02302672       -3.39332757
