   70
C70 / DATE: 7/ 1/2024 / Origin: Program Fullerene / C70 from database
 C            1.68438755       -0.01265613        4.63137529
 C            0.85746189       -1.19913034        4.72907967
 C            1.40795551       -2.19627791        3.82701489
 C            2.59163504       -0.20239669        3.51262899
 C            2.34094026       -1.51078579        2.94550555
 C            2.46226965        0.94797406        2.64645158
 C            0.81579254        1.10280007        4.30154199
 C            1.39925839        1.79021916        3.16731786
 C           -0.53035404       -0.79772374        4.55894059
 C           -0.53512544        0.59943155        4.15739672
 C           -1.39687003       -1.68188944        3.93402051
 C            0.54084938       -3.12935949        3.28042945
 C           -0.88550496       -2.98137107        3.53277658
 C            0.69024254       -3.49235195        1.88208621
 C            2.18583768       -1.62312727        1.56444715
 C            1.49409692       -2.71639046        1.04185319
 C            2.51077693        0.76418114        1.27110151
 C            2.47782878       -0.52924372        0.73778794
 C            2.06340861        1.81023384        0.47649464
 C            0.54642960        2.37832927        2.23947636
 C            1.06843854        2.65369780        0.97876902
 C           -1.25639848        0.99975330        3.03583730
 C           -0.82508453        2.13132687        2.33872217
 C           -2.24935592       -1.19906652        2.85870604
 C           -2.11364823        0.09987407        2.39247569
 C           -1.59336006       -3.38471716        2.33190296
 C           -0.61556991       -3.92399758        1.41027679
 C           -2.40839011       -2.26693122        1.88698577
 C           -0.87945595       -3.80922645        0.05911086
 C            1.31869834       -2.81653969       -0.33723705
 C            0.23177983       -3.54213356       -0.82483847
 C            2.38351118       -0.67586209       -0.65022094
 C            1.94175328       -1.89517219       -1.17975777
 C            2.25876539        1.72702187       -0.89376956
 C            2.44481186        0.46693190       -1.46362852
 C            1.85948566        2.80295266       -1.68201373
 C            0.30435540        3.40930841        0.09329086
 C            0.82560563        3.68114281       -1.16752629
 C           -1.65439988        2.63255632        1.34181348
 C           -1.07560567        3.43815029        0.27905795
 C           -2.54815517        0.38589912        1.10200615
 C           -2.59248542        1.71614954        0.71877623
 C           -2.42613993       -1.95637359        0.52523082
 C           -1.94162010       -2.90776172       -0.36892713
 C           -2.50020904       -0.61587250        0.12607532
 C           -0.36714827       -3.14524406       -2.08045055
 C           -1.63322450       -2.51895085       -1.73346748
 C            1.72641088       -2.01725835       -2.55207223
 C            0.43918938       -2.51360620       -3.00711680
 C            2.46399033        0.33772189       -2.84900359
 C            2.10079409       -0.93107750       -3.43588810
 C            1.63619724        2.62365205       -3.10691055
 C            1.86135283        1.37404020       -3.66982428
 C           -0.08110812        3.99064227       -2.26032536
 C            0.43770296        3.36583762       -3.46557505
 C           -1.95904987        3.30447271       -0.86808049
 C           -2.67998359        2.05395185       -0.68715154
 C           -1.48119595        3.62952170       -2.12849649
 C           -2.34614738       -0.27109991       -1.22757434
 C           -1.86313571       -1.21222636       -2.14620407
 C           -2.56080521        1.04832825       -1.64103293
 C           -0.14085456       -1.45670519       -3.81029520
 C            0.97547023       -0.69034402       -4.32726844
 C            0.81736811        0.74264581       -4.47001471
 C           -1.26367864       -0.78044508       -3.33149284
 C           -0.65567241        2.66132905       -4.10603209
 C           -1.81927991        2.75855332       -3.24007520
 C           -2.28420108        1.40946419       -2.95751858
 C           -0.47078309        1.26445017       -4.44757278
 C           -1.53085129        0.50077067       -3.79940090
