   70
C70 / DATE: 7/ 1/2024 / Origin: Program Fullerene / C70 from database
 C            1.71929607       -0.04081951        4.45431360
 C            0.89530292       -1.22778055        4.31160491
 C            1.37469453       -1.97340871        3.16120704
 C            2.70444944       -0.05882878        3.38981501
 C            2.58474832       -1.31867708        2.68965006
 C            2.55598085        1.15305441        2.61222206
 C            0.86404799        1.11158311        4.24026345
 C            1.36371460        1.83518530        3.08627905
 C           -0.48940092       -0.80661260        4.32783604
 C           -0.50925680        0.64541476        4.21224981
 C           -1.39946722       -1.53642537        3.57885472
 C            0.45317270       -2.44828732        2.22208607
 C           -0.90626413       -2.42702371        2.53181429
 C            0.85814805       -2.58655198        0.88901385
 C            2.82914402       -1.33055600        1.32730098
 C            2.18788406       -2.30225632        0.57965685
 C            2.76214420        1.07585613        1.24140387
 C            3.17615350       -0.13890563        0.68392224
 C            2.10397055        1.98937271        0.42764662
 C            0.44498557        2.29994091        2.15094691
 C            0.85016430        2.46944461        0.82249394
 C           -1.38996323        1.22954274        3.30653796
 C           -0.91580751        2.23105468        2.44919012
 C           -2.55958871       -0.85196088        3.04239944
 C           -2.55938456        0.54000362        2.97775808
 C           -1.88050263       -2.42041106        1.45382271
 C           -3.00721576       -1.61538839        1.89084470
 C           -0.09576255       -2.60241674       -0.14137506
 C           -1.43304041       -2.32805109        0.14047341
 C            0.32871793       -2.63387197       -1.47142258
 C            2.63651371       -2.49884014       -0.71221634
 C            1.67628476       -2.88846095       -1.71830964
 C            3.44834261       -0.19455634       -0.68739260
 C            3.44722476       -1.44865559       -1.30064322
 C            2.47685055        2.05273166       -0.90672843
 C            3.25036182        0.95315510       -1.46004930
 C            1.49339553        2.44808468       -1.89601420
 C           -0.08330224        2.86691771       -0.14430824
 C            0.17228579        2.61007639       -1.49396700
 C           -1.80543121        2.87881318        1.60565555
 C           -1.38973662        3.15573742        0.24199481
 C           -3.51790462        1.16725345        2.18989695
 C           -3.18644882        2.43621296        1.57158779
 C           -3.79179111       -0.98339640        0.94123802
 C           -4.24001920        0.37434182        1.20861667
 C           -2.22794911       -1.71510116       -0.83168615
 C           -3.40040632       -1.05409811       -0.45716254
 C           -0.47522993       -2.03959521       -2.45376617
 C           -1.65634853       -1.39830036       -2.06744010
 C            0.01241869       -1.82957458       -3.74585706
 C            2.26872461       -2.55197071       -2.99718956
 C            3.30674899       -1.56212267       -2.74188980
 C            1.41526406       -2.03941821       -4.04062731
 C            2.91503578        0.84978518       -2.87457778
 C            1.80494947        1.75950577       -3.13609291
 C            2.98849943       -0.38120756       -3.51766642
 C            1.96422410       -0.76238711       -4.47377373
 C           -0.36909666       -0.61438402       -4.42941475
 C            0.76850038        1.38324297       -3.97746871
 C            0.84696784        0.13114732       -4.71044798
 C           -0.87795114        2.19400900       -2.32493148
 C           -2.04532020       -0.21126073       -2.70589083
 C           -0.60125597        1.53535870       -3.52181038
 C           -1.28078663        0.27791285       -3.75148651
 C           -2.46405643        2.74163207       -0.63746998
 C           -3.60565529        2.38367098        0.18091408
 C           -4.23680736        1.10459004       -0.04658594
 C           -3.67532668        0.23565569       -1.05850764
 C           -2.12997650        1.97338366       -1.74747645
 C           -2.74285750        0.72789193       -1.95986484
