   70
C70 / DATE: 7/ 1/2024 / Origin: Program Fullerene / C70 from database
 C            1.43801166        0.10298543        4.40878087
 C            0.65160795       -1.09721741        4.18760788
 C            1.41989141       -1.98746527        3.34932649
 C            2.62855556        0.00840008        3.58191873
 C            2.68080220       -1.32753198        3.03558705
 C            2.62272287        1.11575151        2.65299492
 C            0.65832721        1.23103443        3.93286061
 C            1.42411963        1.89713654        2.90685415
 C           -0.65332969       -0.69164442        3.72543074
 C           -0.66136310        0.75261604        3.58293824
 C           -1.27668651       -1.42802044        2.73229530
 C            0.77558132       -2.69997438        2.33780111
 C           -0.56922545       -2.41907307        2.02872332
 C            1.58816031       -3.28964460        1.36645764
 C            3.20470929       -1.51206601        1.76313010
 C            2.91241344       -2.73127318        1.16096085
 C            2.98824408        0.87884504        1.32850070
 C            3.45909141       -0.38819407        0.95551684
 C            2.54095808        1.77083160        0.34368385
 C            0.75379831        2.40939922        1.81024295
 C            1.49676133        2.65202690        0.66754074
 C           -1.29598975        1.28867218        2.46310660
 C           -0.63377842        2.24550504        1.68704952
 C           -2.36481820       -0.83470810        2.10988424
 C           -2.31795743        0.54659466        1.87443342
 C           -3.12893630       -1.64341937        1.29001662
 C           -1.09148817       -2.87700028        0.81010125
 C           -2.42204735       -2.62703542        0.49948146
 C            1.04085805       -3.57533561        0.05264466
 C           -0.21727705       -3.08689916       -0.24644944
 C            3.29095086       -2.97076732       -0.21481563
 C            2.10386536       -3.42709726       -0.92150745
 C            3.92014995       -0.56451735       -0.34677756
 C            3.85807963       -1.87693485       -0.96730391
 C            2.94591397        1.59893350       -0.98986740
 C            3.53928402        0.39712708       -1.36237809
 C            2.27854913        2.28802258       -1.99845046
 C            0.92613525        3.46417568       -0.29612536
 C            1.41673189        3.39216327       -1.64984895
 C           -1.26691825        2.74818028        0.54308555
 C           -0.52425987        3.54014399       -0.34206993
 C           -3.02618590        1.10009925        0.80548902
 C           -2.49203713        2.20677778        0.12783864
 C           -4.14006887       -1.04070791        0.44918014
 C           -4.10895775        0.39369305        0.27634067
 C           -2.74352784       -2.33979704       -0.88451460
 C           -4.00538504       -1.63071262       -0.87414907
 C           -0.43300736       -2.40568234       -1.45072182
 C           -1.71005439       -1.92890415       -1.72793097
 C            1.88726378       -2.53886525       -2.04663190
 C            3.08639502       -1.74814129       -2.19291855
 C            2.93101278       -0.34095964       -2.45959028
 C            0.65027801       -1.91102837       -2.17397543
 C            1.60463361        1.50392152       -3.02244146
 C            1.72033416        0.12628722       -2.95449939
 C            0.55900837       -0.64173133       -2.76097675
 C            0.26815900        3.35378275       -2.53487810
 C           -0.91414180        3.63683098       -1.74159661
 C            0.31425535        2.10016140       -3.26768041
 C           -3.01398418        2.59509910       -1.10950097
 C           -2.10147394        3.04719836       -2.13503793
 C           -4.53189443        0.62867704       -1.08774407
 C           -4.21085574       -0.57602591       -1.83811362
 C           -3.95385012        1.73813256       -1.80294635
 C           -1.84998684       -0.76946649       -2.50311965
 C           -0.70779934       -0.04964021       -2.89564313
 C           -0.81998341        1.30171255       -3.26763982
 C           -2.03395340        1.96051507       -3.10073696
 C           -3.12020476       -0.23254636       -2.72832964
 C           -3.24418649        1.18859482       -2.95089320
