   70
C70 / DATE: 7/ 1/2024 / Origin: Program Fullerene / C70 from database
 C            1.25481030        0.18565633        4.72628321
 C            2.49872212        0.02168457        4.00843611
 C            2.51551992       -1.33691430        3.49860865
 C            0.42931123       -0.98109178        4.43259726
 C            1.14990029       -1.80279600        3.48104067
 C           -0.88847191       -0.50411255        4.07480034
 C            0.45910064        1.36128036        4.44443095
 C           -0.91648777        0.91939054        4.32420718
 C            0.76038687        2.14703451        3.25699560
 C            2.77631825        0.89305203        2.87768362
 C            1.78197748        1.74437918        2.40140212
 C            3.21708716       -1.30207297        2.24169817
 C            3.51581614        0.08740484        1.93053896
 C            2.75564344       -2.08676205        1.19840009
 C            0.56372099       -2.09320332        2.24882577
 C            1.37721211       -2.37552804        1.14085577
 C           -1.48131982       -0.95274839        2.90342069
 C           -0.79572076       -1.83432302        2.05527202
 C           -2.54350113       -0.21303403        2.38574162
 C           -1.55099892        1.75402410        3.32469891
 C           -0.50847495        2.55644679        2.69577246
 C           -2.51028552        1.18454491        2.49282893
 C           -0.60937350        2.80044254        1.33115289
 C            1.64044881        1.91822777        1.02096556
 C            0.46527159        2.48269582        0.49145248
 C            3.51930956        0.44725877        0.58749694
 C            2.65333397        1.46163853        0.16491210
 C            3.44990605       -1.91637548        0.01282743
 C            3.85726250       -0.56052092       -0.31525272
 C            2.95161490       -2.53898934       -1.18453575
 C            0.77035069       -2.67486545       -0.09108936
 C            1.55823085       -2.91798615       -1.21297336
 C           -1.40204586       -2.21827747        0.86005080
 C           -0.60260116       -2.46886303       -0.26260251
 C           -3.32245834       -0.81399616        1.40517279
 C           -2.76106842       -1.95631300        0.70949546
 C           -3.99764696        0.00824272        0.41642694
 C           -2.89315007        1.94959932        1.39796508
 C           -1.89194650        2.81438430        0.79726071
 C           -3.67510192        1.35136776        0.33270702
 C           -2.07077930        2.77439304       -0.63640815
 C           -3.20207661        1.90643665       -0.92802009
 C            0.31556630        2.61218157       -0.89591023
 C           -0.95923040        2.72534520       -1.46343738
 C            2.60276475        1.78286514       -1.18803643
 C            1.41828713        2.42713268       -1.72179043
 C            3.64899045       -0.36342353       -1.73715199
 C            3.19139287       -1.62411023       -2.28887663
 C            3.06121894        0.81316698       -2.17318325
 C            1.05198971       -2.55422261       -2.52008860
 C            2.00711142       -1.63505790       -3.12184934
 C           -1.14367352       -2.41983791       -1.56153971
 C           -0.29963840       -2.28470047       -2.66542500
 C           -3.36220876       -2.00747273       -0.60301142
 C           -4.10038922       -0.76778968       -0.80272817
 C           -2.50324992       -2.19445065       -1.74946543
 C           -3.17172407        1.12759641       -2.08494014
 C           -3.64770036       -0.18670352       -2.05504472
 C           -2.91977694       -1.23456271       -2.75545365
 C           -1.16640647        2.35423574       -2.78954558
 C           -2.31132747        1.51366244       -3.11109803
 C            1.22671197        1.94168324       -3.07853212
 C            2.07988165        0.77375107       -3.24893911
 C            1.53180881       -0.44609316       -3.66717785
 C           -0.04877981        1.93600819       -3.61749273
 C           -0.68673036       -1.46492841       -3.72547463
 C           -2.01834397       -0.88057251       -3.74685445
 C           -1.87307660        0.52415488       -4.07736053
 C            0.25231253       -0.46656859       -4.21303030
 C           -0.47352668        0.77789914       -4.37810554
