   70
C70 / DATE: 7/ 1/2024 / Origin: Program Fullerene / C70 from database
 C            1.49120667       -0.01753801        5.05791420
 C            0.71410383       -1.23722586        4.96065768
 C            1.60650983       -2.26240727        4.46420060
 C            2.68179244       -0.19476891        4.23876607
 C            2.77015534       -1.59282325        3.89462757
 C            2.62145684        0.77728783        3.16614290
 C            0.70767507        1.04955396        4.46330540
 C            1.53429503        1.68726207        3.46908351
 C           -0.49956301       -0.93405578        4.21368486
 C           -0.55584334        0.50468838        4.01643331
 C           -0.90855683       -1.76529848        3.17151782
 C            1.10356348       -3.17539219        3.46245770
 C           -0.21516379       -2.94679823        2.89587864
 C            2.83970200       -1.95907975        2.49239922
 C            2.03931006       -3.15450673        2.35131886
 C            2.78742397        0.38286806        1.83249761
 C            2.74626312       -0.97916996        1.49918791
 C            2.45309716        1.32444518        0.85099471
 C            0.91069779        2.26568697        2.38242820
 C            1.68797437        2.42144301        1.25130874
 C           -1.08617092        0.98934429        2.82384298
 C           -0.46137456        2.06341514        2.18638879
 C           -1.73589677       -1.24076522        2.17884111
 C           -1.88241630        0.14771804        2.06051418
 C           -2.04907217       -2.04735365        1.08571066
 C           -0.13612772       -3.39595717        1.51738413
 C            1.26138743       -3.30577549        1.14193066
 C           -1.07099263       -2.91298535        0.60965564
 C            2.32509874       -1.35647560        0.21871727
 C            1.56521701       -2.51776331        0.04476613
 C            2.43375726        0.94200112       -0.49427009
 C            2.33828384       -0.41614926       -0.81129289
 C            2.15278023        1.90577364       -1.47279475
 C            1.19523971        3.28548855        0.29789756
 C            1.61087321        3.12490596       -1.07592256
 C           -1.02076216        2.57129396        1.00569543
 C           -0.24058685        3.47998257        0.29029942
 C           -2.52273988        0.66795329        0.93908007
 C           -2.00799979        1.82677375        0.33186834
 C           -3.00943559       -1.59619840        0.19284182
 C           -3.35418259       -0.18875849        0.22796652
 C           -2.88313577       -1.96428500       -1.20735412
 C           -0.68468813       -2.78770011       -0.72589992
 C            0.66537354       -2.54767884       -1.00887875
 C           -1.65723957       -2.44305552       -1.66801237
 C            1.88336734       -0.79677858       -2.07609036
 C            1.00660390       -1.88322001       -2.17549564
 C            2.04297660        1.52022814       -2.80972414
 C            2.01659059        0.10695916       -3.12446540
 C            1.07047085        2.18067488       -3.67711109
 C            0.57571273        3.74204020       -1.88375908
 C           -0.61368024        3.85340988       -1.05246516
 C            0.19705574        3.10305036       -3.12541520
 C           -2.40560324        2.18693874       -0.97450515
 C           -1.67129732        3.11895649       -1.69761036
 C           -1.22033468        2.77078650       -3.03726838
 C           -3.80921136        0.18305319       -1.09093885
 C           -3.59049948       -0.95367938       -1.97140612
 C           -3.22521533        1.34420245       -1.71466927
 C           -1.70351632        1.60234516       -3.63116491
 C           -2.99559510       -0.46515249       -3.19893150
 C           -2.81610312        0.97484406       -3.06290823
 C           -1.26671728       -2.19134936       -2.98471035
 C            0.14493812       -2.01006600       -3.25778847
 C           -1.99438577       -1.21750155       -3.79096269
 C            1.23938012       -0.05984376       -4.33842740
 C            0.53036200        1.18516528       -4.57879306
 C           -0.89341848        0.89938811       -4.52735117
 C            0.27182992       -1.13145884       -4.39989032
 C           -1.03499982       -0.54091258       -4.64192843
