   70
C70 / DATE: 7/ 1/2024 / Origin: Program Fullerene / C70 from database
 C            1.04117068       -0.06838058        4.69604657
 C            2.33453142       -0.39502274        4.15690226
 C            2.24636473       -1.74642596        3.61731785
 C            0.21866359       -1.26079874        4.56180100
 C            0.84091278       -2.06537876        3.53266154
 C           -1.13278270       -0.80721129        4.34747424
 C            0.29682325        1.00771401        4.07861508
 C           -1.08504724        0.64665920        4.28009895
 C            0.69146168        1.49474228        2.82519624
 C            2.85860326        0.42718845        3.08879152
 C            2.00465642        1.27782755        2.37757126
 C            3.02134690       -1.75221062        2.39901389
 C            3.70737481       -0.47115847        2.34132181
 C            2.44742779       -2.23929301        1.22873620
 C            0.24434913       -2.14596603        2.27163723
 C            1.04700554       -2.31848153        1.13091525
 C           -1.82760205       -1.24593905        3.15428046
 C           -1.12291147       -1.86122728        2.12451238
 C           -2.03202873        1.04527553        3.27388342
 C           -2.70638398       -0.15517926        2.81001757
 C           -0.28065900        1.99115297        1.93708197
 C           -1.63872752        1.95817873        2.30633925
 C            0.07869351        2.26786437        0.60791024
 C            2.36313415        1.62977395        1.07318688
 C            1.41931348        2.20812450        0.22227549
 C            4.16663059       -0.04757447        1.10995217
 C            3.56939660        1.15153144        0.54579915
 C            3.20290046       -2.09062060        0.07179508
 C            4.19536355       -1.02918948        0.04255402
 C            2.55331296       -2.11639842       -1.22041996
 C            0.43402277       -2.44154435       -0.12262879
 C            1.18983506       -2.33600678       -1.29609427
 C           -1.67861158       -1.83493864        0.84757579
 C           -0.95997231       -2.39401219       -0.20347069
 C           -3.24120794       -0.10327965        1.53211957
 C           -2.81205723       -1.04372292        0.58400949
 C           -2.60593285        2.22836269        1.34935650
 C           -3.56430963        1.16913294        1.08337333
 C           -0.89842091        2.59976712       -0.33931844
 C           -2.21210799        2.75740457        0.06617657
 C           -0.60792624        2.52736537       -1.70471052
 C            1.76363762        2.47043596       -1.10406244
 C            0.71849460        2.57782137       -2.10904009
 C            3.74852822        1.06956269       -0.89402347
 C            4.04997634       -0.31420341       -1.20984595
 C            3.11436712       -1.05534491       -2.03555430
 C            2.86143359        1.74213588       -1.71330175
 C            1.13868588        1.80532477       -3.26887420
 C            2.25067426       -0.35035087       -2.86544663
 C            2.30778643        1.04653402       -2.86350029
 C            0.54733536       -2.01142214       -2.48613713
 C            1.06896807       -0.97194270       -3.27435418
 C           -1.57868603       -2.54961906       -1.43795880
 C           -0.76961524       -2.42759319       -2.63404402
 C           -3.30719839       -0.96750606       -0.72663757
 C           -2.83266013       -1.86141978       -1.68239027
 C           -4.03634453        1.33167253       -0.26741417
 C           -3.27281659        2.41886858       -0.86185221
 C           -3.94286363        0.19873651       -1.16181361
 C           -1.59425365        2.13793109       -2.62265487
 C           -2.91268456        2.00296866       -2.20143418
 C           -3.60908463        0.75106877       -2.46184191
 C            0.17250499        1.16965110       -4.03013978
 C            0.24487125       -0.27390563       -4.15475023
 C           -1.22124916        1.49679328       -3.80174167
 C           -1.59805950       -1.87653495       -3.68605501
 C           -2.86406058       -1.48431277       -3.08941819
 C           -3.11691866       -0.09764590       -3.44210206
 C           -1.09174555       -0.75594129       -4.44385599
 C           -2.00562861        0.36013261       -4.25941259
