   70
C70 / DATE: 7/ 1/2024 / Origin: Program Fullerene / C70 from database
 C            1.57555429        0.08378596        4.96232199
 C            0.76512255       -1.09550798        4.70993475
 C            1.38582038       -1.83687553        3.62288989
 C            2.65460404        0.08338539        3.99454463
 C            2.68248207       -1.22702643        3.37553042
 C            2.50010828        1.24208639        3.12704571
 C            0.74987668        1.24419666        4.69525506
 C            1.31316205        1.95423897        3.55615082
 C           -0.61111375       -0.66230650        4.55928071
 C           -0.62790777        0.79565512        4.61401146
 C           -1.40751296       -1.32065486        3.63163089
 C            0.59916851       -2.25030666        2.54183310
 C           -0.78418189       -2.21925375        2.66624517
 C            1.17969537       -2.40467380        1.27623453
 C            3.19955630       -1.30754655        2.09881575
 C            2.54224248       -2.17838827        1.14744943
 C            2.74700236        1.07608995        1.76558863
 C            3.44103358       -0.06457788        1.38321660
 C            1.93222402        1.72202552        0.82296927
 C            0.44750806        2.45378382        2.59448292
 C            0.86437064        2.51720562        1.26334891
 C           -1.48464513        1.50028543        3.77869230
 C           -0.91575778        2.49683222        2.88616036
 C           -2.45631007       -0.59232667        2.93940261
 C           -2.50387653        0.79059984        3.02253315
 C           -1.60388134       -2.22216024        1.47378546
 C           -2.64620046       -1.22923859        1.65163192
 C            0.38215993       -2.43426000        0.11735437
 C           -1.00811884       -2.33063812        0.22112234
 C            0.98003860       -2.39912756       -1.15809527
 C            3.05807557       -1.78758016       -0.13774125
 C            3.50299694       -0.40850568       -0.01418126
 C            2.35012898       -2.10553902       -1.27918684
 C            2.09812224        1.45222439       -0.55199351
 C            3.04190049        0.49532729       -0.96038393
 C            1.18102111        1.96671949       -1.48413157
 C            0.02775352        3.12778173        0.33616854
 C            0.21267734        2.86712234       -1.07713022
 C           -1.86876092        2.70345441        1.81401630
 C           -2.77386976        1.56546543        1.82106538
 C           -1.40294217        3.17027910        0.59597848
 C           -3.01109922       -0.47821934        0.54523737
 C           -3.04942031        0.92145105        0.61655586
 C           -1.74220572       -1.91670945       -0.88903693
 C           -2.84306042       -1.06782012       -0.69836477
 C            0.16364805       -2.34855124       -2.30565712
 C           -1.21090779       -2.10497298       -2.16506096
 C            0.76753687       -2.24084598       -3.56565949
 C            2.77399590       -1.42526905       -2.40819040
 C            2.99138202        0.00533136       -2.26231630
 C            2.07767798       -1.64486725       -3.64565972
 C            1.06980358        1.40175662       -2.75467359
 C            2.13020969        0.64274794       -3.22992890
 C            1.90886259       -0.34287158       -4.26920093
 C           -0.17291859        1.39546001       -3.41454752
 C           -1.09908024        2.80222342       -1.69368826
 C           -2.07409435        2.74033643       -0.61663266
 C           -2.95874388        1.66359552       -0.56747559
 C           -1.28762132        1.98520737       -2.80244424
 C           -3.38675748       -0.39827533       -1.77861387
 C           -3.29482974        1.04645526       -1.76826023
 C           -2.54712035        1.40599920       -2.95914910
 C           -2.00289278       -1.80450931       -3.27717663
 C           -3.08154575       -0.85528096       -3.11565984
 C           -2.73501053        0.31993872       -3.90083289
 C            0.03755678       -1.67035818       -4.67902315
 C            0.63184330       -0.36514940       -4.93869763
 C           -0.36106715        0.61803758       -4.56334936
 C           -1.38239732       -1.46722237       -4.53962439
 C           -1.63107084       -0.04966877       -4.75671680
