   70
C70 / DATE: 7/ 1/2024 / Origin: Program Fullerene / C70 from database
 C            1.28832521        0.12224521        4.69658077
 C            2.51201112       -0.03691104        3.93914373
 C            2.48475805       -1.34913311        3.31301625
 C            0.45507319       -1.04121757        4.44429937
 C            1.18562192       -1.93937019        3.56132420
 C           -0.85513380       -0.57385773        4.01805485
 C            0.48014375        1.30189169        4.46877087
 C           -0.86720027        0.86823098        4.12606996
 C            0.89238014        2.26400535        3.46205662
 C            2.84189999        0.93261685        2.90858398
 C            2.08581056        2.09584682        2.75181943
 C            2.91699028       -1.19807568        1.93714015
 C            3.25491057        0.19580776        1.72246506
 C            2.22593188       -1.86348907        0.93902230
 C            0.49803126       -2.50951203        2.49486977
 C            1.15236821       -2.69642911        1.27301539
 C           -1.42154652       -1.16865416        2.89860516
 C           -0.88386973       -2.37817784        2.47985551
 C           -2.10940837       -0.38805993        1.95986311
 C           -1.30777938        1.64228634        2.98054692
 C           -0.30815847        2.66450189        2.74387320
 C           -1.86184603        0.98539606        1.88514068
 C           -0.17293319        3.17122235        1.46193903
 C            2.23930256        2.80694271        1.56693983
 C            1.10074329        3.53919680        1.04588139
 C            3.03649414        0.76999291        0.47083655
 C            2.85923567        2.14444287        0.42902093
 C            2.33278688       -1.38551027       -0.35913547
 C            2.53945186       -0.01921304       -0.57716464
 C            1.87628723       -2.19122376       -1.38404528
 C            0.46337888       -3.35931775        0.24987660
 C            0.91092310       -3.22925933       -1.06753642
 C           -1.59245228       -3.10317355        1.54394338
 C           -0.84521633       -3.77343782        0.49789279
 C           -2.69711404       -1.03827014        0.87182265
 C           -2.69383199       -2.43527964        0.88720225
 C           -2.83510035       -0.35170394       -0.34308814
 C           -1.81488080        1.60761345        0.63660585
 C           -1.11307259        2.81146231        0.49530124
 C           -2.27527360        0.91955182       -0.49035236
 C           -1.03703444        3.42009027       -0.75305277
 C            1.34284588        3.74638800       -0.36639208
 C            2.33759022        2.76021300       -0.77099768
 C            0.24936656        3.94606834       -1.19275198
 C            2.10371513        0.57904317       -1.77556884
 C            2.09001349        1.98033855       -1.89517261
 C            1.50752152       -1.59457175       -2.64871818
 C            1.64686393       -0.22590057       -2.83483017
 C           -0.02274654       -3.32066548       -2.18373725
 C            0.29616373       -2.25196192       -3.12257164
 C           -1.77044281       -3.97826969       -0.60413286
 C           -2.96156178       -3.18759539       -0.32041267
 C           -1.34592174       -3.67023417       -1.95446158
 C           -3.28982281       -1.01555753       -1.48118105
 C           -3.31138448       -2.46489674       -1.51729672
 C           -2.39882880       -2.88671701       -2.56930357
 C           -0.71822790       -1.48494702       -3.70311018
 C           -2.80113638       -0.58865202       -2.77417878
 C           -2.04355414       -1.70292152       -3.32702801
 C           -2.17030939        1.49236833       -1.76565912
 C           -1.67210995        2.78693169       -1.89367237
 C           -2.26447297        0.68189993       -2.90445831
 C            0.40205738        3.60075534       -2.59028315
 C            1.38202035        2.58535216       -2.93133738
 C           -0.88415191        3.13130213       -3.06407735
 C            0.91300157        0.33692200       -3.87139062
 C           -0.39542377       -0.21633311       -4.17616105
 C           -1.34366789        0.85360739       -3.93234415
 C            0.80037832        1.77392155       -3.97278960
 C           -0.61878241        2.10004459       -4.04298575
