   70
C70 / DATE: 7/ 1/2024 / Origin: Program Fullerene / C70 from database
 C            1.58452459        0.02412409        4.69244011
 C            0.79135735       -1.18077635        4.54990497
 C            1.41344539       -2.01347578        3.53701903
 C            2.65501986       -0.03278936        3.71190810
 C            2.52764661       -1.26362074        2.97086408
 C            2.62632756        1.19833879        2.96825849
 C            0.73292190        1.15072453        4.34762476
 C            1.42011112        1.92140030        3.34330582
 C           -0.58465888       -0.77927429        4.35110152
 C           -0.57781287        0.63880032        4.02446805
 C           -1.39613326       -1.61542159        3.60496429
 C            0.59935757       -2.74931239        2.67811174
 C           -0.78679463       -2.70280386        2.84563534
 C            1.12478481       -3.12559461        1.44606232
 C            2.68709496       -1.24604172        1.58675427
 C            2.22776368       -2.35692960        0.89061932
 C            2.95769520        1.18272377        1.62022432
 C            2.87593265       -0.02692726        0.90481370
 C            2.68320057        2.36134587        0.94655190
 C            0.68898601        2.51134927        2.31883584
 C            1.45151363        3.05337097        1.29355676
 C           -1.20795629        1.06467305        2.85450873
 C           -0.58897361        2.00971967        2.01190343
 C           -2.40526350       -1.01836525        2.75140326
 C           -2.28954134        0.31841529        2.38391901
 C           -1.66812782       -2.98718881        1.72166507
 C           -2.74045450       -2.00102792        1.73888844
 C            0.24128575       -3.49471559        0.35062064
 C           -1.13945795       -3.39100781        0.49890936
 C            2.04521266       -2.28594414       -0.54114733
 C            0.86590137       -3.05481970       -0.89022946
 C            2.78204548        0.00728583       -0.50100232
 C            2.26805184       -1.09279604       -1.19530706
 C            2.81916661        2.40855520       -0.48786770
 C            2.96495798        1.21665794       -1.18715996
 C            0.81675054        3.43639142        0.05432871
 C            1.85492158        3.39140170       -0.95618317
 C           -1.18683009        2.33370876        0.78154728
 C           -0.43497054        2.91750250       -0.24087529
 C           -2.99550059        0.76073080        1.27616927
 C           -2.45332908        1.84770983        0.48555286
 C           -3.28055455       -1.57496822        0.53142559
 C           -3.56815171       -0.21703997        0.36201567
 C           -1.92539402       -3.24702706       -0.64038964
 C           -3.10010868       -2.38988573       -0.58116628
 C            0.05943036       -2.63036159       -1.94436046
 C           -1.28087153       -3.00730887       -1.92104901
 C            1.69323301       -0.91365394       -2.44518567
 C            0.47983748       -1.55522785       -2.74973655
 C            2.78808293        1.25493021       -2.57172904
 C            2.16546737        0.12213629       -3.23369326
 C            1.47814897        3.35042015       -2.28449715
 C            2.22154503        2.46143044       -3.15482071
 C           -0.79553535        2.72676510       -1.58102372
 C            0.06896947        3.15642540       -2.58898361
 C           -2.81744148        1.61956751       -0.90303253
 C           -3.57727400        0.38150267       -0.96574750
 C           -1.89678199        1.92215048       -1.90366139
 C           -3.32622508       -1.85882533       -1.91139458
 C           -2.23274385       -2.31233908       -2.75675716
 C           -3.46320564       -0.42524316       -2.08514067
 C           -0.40511177       -0.98700601       -3.68734071
 C           -1.92494079        1.20778083       -3.11322244
 C           -1.76851350       -1.18272069       -3.52092951
 C           -2.56800264       -0.02675371       -3.15458029
 C            1.32433193        0.62523636       -4.29410820
 C            1.33843474        2.07497301       -4.23689446
 C           -0.00198871        2.51128449       -3.88094801
 C           -0.05555530        0.20586827       -4.30826209
 C           -0.87925299        1.37179291       -4.01745513
