   70
C70 / DATE: 7/ 1/2024 / Origin: Program Fullerene / C70 from database
 C            1.59708614        0.04391485        4.59185727
 C            0.79170767       -1.16315622        4.53684367
 C            1.44911164       -2.09205307        3.63905086
 C            2.62686766       -0.06289721        3.57221683
 C            2.58124003       -1.40037414        3.03743294
 C            2.46370593        1.03638158        2.65117912
 C            0.74318970        1.15900877        4.23242021
 C            1.37626052        1.86862384        3.13646001
 C           -0.57652342       -0.78136864        4.25366371
 C           -0.59966383        0.65413480        4.01875404
 C           -1.33413606       -1.60707923        3.43965185
 C            0.67867832       -2.92373964        2.82604434
 C           -0.70956539       -2.75679424        2.79333187
 C            1.31376502       -3.51313211        1.73560975
 C            2.81441615       -1.60088809        1.68361058
 C            2.50982252       -2.87016797        1.21695229
 C            2.54062223        0.79420737        1.28299212
 C            2.74524359       -0.50752347        0.79503226
 C            2.02136986        1.75955368        0.42779795
 C            0.55467575        2.46820754        2.19060382
 C            1.06388393        2.65923982        0.90935276
 C           -1.31210753        1.16931021        2.93925997
 C           -0.82471449        2.32552259        2.32898780
 C           -2.25140299       -1.00965545        2.48566810
 C           -2.18653390        0.34929568        2.21691932
 C           -1.44538814       -3.01174190        1.56203771
 C           -2.40205758       -1.92835231        1.37644749
 C            0.53491122       -3.95547816        0.59107413
 C           -0.78541550       -3.53388700        0.45450405
 C            2.59266423       -3.14526542       -0.19433257
 C            1.42312071       -3.92847808       -0.55887557
 C            2.69812948       -0.72650358       -0.59595477
 C            2.67421365       -2.02604717       -1.10235476
 C            2.19309927        1.60730380       -0.93887162
 C            2.34266916        0.31925543       -1.45655148
 C            1.81031111        2.65340250       -1.76803483
 C            0.31959385        3.42335427        0.00952443
 C            0.76817858        3.55039385       -1.30444648
 C           -1.63948308        2.96331216        1.40505225
 C           -1.01433281        3.69098733        0.31475641
 C           -2.70200951        0.81660970        1.00984053
 C           -2.72015061        2.19217734        0.82360652
 C           -2.61894085       -1.42654382        0.09589753
 C           -2.74065464       -0.04447112       -0.10042201
 C           -1.31189548       -3.29194933       -0.81483689
 C           -2.31113885       -2.24601593       -0.98141084
 C            0.92678530       -3.41216861       -1.81727734
 C            1.80084241       -2.32248431       -2.22279113
 C           -0.43970993       -3.26452701       -1.98215989
 C            1.82327011        0.00726639       -2.72054611
 C            1.27187533       -1.25496609       -2.93518818
 C            1.58889652        2.39743308       -3.17509043
 C            1.51726912        1.02174176       -3.61847564
 C           -0.19034685        3.71467386       -2.39013006
 C            0.35494735        3.06210071       -3.56537683
 C           -1.99556353        3.76032939       -0.75244401
 C           -2.99335604        2.73462912       -0.48773216
 C           -1.54903051        3.60260477       -2.12119166
 C           -2.78434083        0.47359808       -1.40827559
 C           -3.00492981        1.83331755       -1.61628762
 C           -2.31542875        2.50591528       -2.70322718
 C           -2.13561231       -1.66649133       -2.29663578
 C           -0.92303140       -2.22498603       -2.86991729
 C           -0.01871670       -1.35436324       -3.46829164
 C           -2.39229525       -0.31632245       -2.49386182
 C            0.31302371        0.87721527       -4.40929779
 C           -0.46574053        2.09602043       -4.26942447
 C           -1.76288257        1.73676090       -3.71865590
 C           -0.55563742       -0.24595116       -4.11471636
 C           -1.81271066        0.28801981       -3.61134779
