   70
C70 / DATE: 7/ 1/2024 / Origin: Program Fullerene / C70 from database
 C            1.25720436        0.14237864        5.00511303
 C            0.51937063       -1.07246562        4.71432500
 C            1.45689364       -2.03391849        4.18135066
 C            2.57941124        0.00426057        4.41614296
 C            2.70136367       -1.33817766        3.89518000
 C            2.76187562        1.10383968        3.49710649
 C            0.58602194        1.24117612        4.33021254
 C            1.56530772        1.92909389        3.52594897
 C           -0.62920617       -0.71633148        3.89918473
 C           -0.57680600        0.71679735        3.65786434
 C           -1.00512244       -1.54321244        2.83992610
 C            1.07516202       -2.74184733        2.98182013
 C           -0.24064841       -2.68230375        2.54158486
 C            2.99179961       -1.51122774        2.47870000
 C            2.11815221       -2.55690970        1.98623688
 C            3.34163788        0.87393291        2.25448032
 C            3.21597518       -0.40049643        1.67313548
 C            3.36204842        1.97357399        1.41158868
 C            1.16988027        2.50504217        2.32201075
 C            2.20384596        2.85447327        1.46408990
 C           -0.87100852        1.17304852        2.37827319
 C           -0.07088562        2.14903767        1.76182568
 C           -1.79414065       -0.98136131        1.83156156
 C           -1.70031528        0.38907096        1.58790922
 C           -2.32511327       -1.81036037        0.84445612
 C           -0.47992654       -3.32032084        1.33584072
 C           -1.70004615       -3.03218255        0.61988394
 C            1.73165816       -2.56691744        0.64520928
 C            0.59111375       -3.30023256        0.34804984
 C            2.97217213       -0.52154681        0.29872331
 C            2.05904411       -1.47390065       -0.16931915
 C            3.69812991        1.77316535        0.02089698
 C            3.41581821        0.47747442       -0.55414491
 C            1.89822301        3.26326423        0.11603605
 C            2.95818892        2.75734858       -0.73838505
 C           -0.37256979        2.52501351        0.43984638
 C            0.59146983        3.17709332       -0.34433073
 C           -2.15942386        0.89723853        0.38632882
 C           -1.52759542        2.01082781       -0.17312698
 C           -3.07333116       -1.25224360       -0.19668996
 C           -3.04604409        0.13890628       -0.36889025
 C           -3.35085221       -2.07703237       -1.28932590
 C           -1.44019688       -3.43579143       -0.74609621
 C           -0.02931306       -3.16772480       -0.95239298
 C           -2.32188084       -3.00304891       -1.71053131
 C            1.36988856       -1.25418916       -1.38097094
 C            0.33702462       -2.10977082       -1.77896631
 C            2.72409045        0.69775298       -1.81186591
 C            2.57360330        2.13641785       -1.98632765
 C            1.66942927       -0.14231198       -2.17199984
 C            0.41634695        3.23147411       -1.72258710
 C            1.41030061        2.58879437       -2.57617526
 C           -1.88002154        2.43023837       -1.46167660
 C           -0.88281316        2.93648006       -2.28941320
 C           -3.65415557        0.73354159       -1.46861343
 C           -3.00975723        1.88581213       -2.07439321
 C           -3.88669634       -1.51015911       -2.50976037
 C           -4.17978673       -0.09741188       -2.53660750
 C           -1.76722425       -2.40042382       -2.90166805
 C           -0.54933577       -1.71819137       -2.79192915
 C           -2.90130953       -1.77670583       -3.55372714
 C            0.73798222        0.30445401       -3.11617062
 C            0.67257329        1.66691176       -3.40471378
 C           -0.62687264        2.27736688       -3.56174020
 C           -0.35675024       -0.49590851       -3.45330905
 C           -2.94605379        1.63674530       -3.50563035
 C           -3.66539897        0.41172818       -3.79298723
 C           -2.69115950       -0.55240068       -4.28195402
 C           -1.63354937        1.50552836       -4.10066920
 C           -1.38769671        0.07772374       -4.21375338
