   70
C70 / DATE: 7/ 1/2024 / Origin: Program Fullerene / C70 from database
 C            1.38081676       -0.00567493        5.03346982
 C            0.60691340       -1.23163979        4.98759707
 C            1.51771530       -2.28857207        4.60345009
 C            2.60431349       -0.23922987        4.28270843
 C            2.70376423       -1.65913359        4.03549983
 C            2.59200008        0.65643858        3.14557211
 C            0.62670662        1.01814896        4.33160762
 C            1.48582919        1.57878820        3.31510874
 C           -0.57154245       -0.98309073        4.16863734
 C           -0.62343880        0.44315401        3.89048582
 C           -0.92630027       -1.87775821        3.15531116
 C            1.05611284       -3.27027333        3.64774881
 C           -0.23602094       -3.08166542        3.00852357
 C            2.82519714       -2.12051851        2.66284404
 C            2.04190797       -3.32911614        2.58077003
 C            2.83013766        0.16776214        1.86176312
 C            2.74786950       -1.20800264        1.60660372
 C            2.58125632        1.03855651        0.81049301
 C            0.89729154        2.05826884        2.15383360
 C            1.69358222        2.09663545        1.02414155
 C           -1.12282447        0.85090736        2.66115776
 C           -0.46965471        1.86544375        1.95298577
 C           -1.68641831       -1.41167554        2.08003648
 C           -1.91740313       -0.03665531        1.94992952
 C           -1.92281898       -2.25807325        0.99114817
 C           -0.09620013       -3.63967675        1.67887170
 C            1.32122002       -3.57676925        1.35491450
 C           -0.99196100       -3.25497621        0.68921458
 C            2.34011436       -1.65258321        0.33253195
 C            1.68284519       -2.88798266        0.20378110
 C            2.74385963        0.56897698       -0.48501242
 C            2.36165440       -0.74904067       -0.74509817
 C            2.69803192        1.51158011       -1.50459970
 C            1.21032998        2.77454983       -0.08243528
 C            2.02023403        2.75701551       -1.20571844
 C           -1.00811778        2.25138285        0.72043180
 C           -0.17958298        2.85425092       -0.24002532
 C           -2.59429124        0.44504833        0.83624868
 C           -2.21725862        1.68498803        0.31549022
 C           -2.80281189       -1.83541077       -0.00132235
 C           -3.26752647       -0.46231778        0.02890435
 C           -2.51892610       -2.16109557       -1.39159162
 C           -0.54560613       -3.36777050       -0.62444692
 C            0.85658292       -3.09690639       -0.88920764
 C           -1.32445198       -2.78757270       -1.70031864
 C            1.67579784       -1.04685631       -1.93552487
 C            0.92523191       -2.20674182       -2.02349487
 C           -0.39960940       -2.13291677       -2.61176800
 C            2.22022403        1.10449489       -2.80444235
 C            1.43804818       -0.04045535       -2.87293251
 C            1.51726813        3.29713644       -2.44521541
 C            1.80125753        2.31663837       -3.48238756
 C           -0.72984066        3.26418704       -1.46514616
 C            0.10914197        3.61228792       -2.52954848
 C           -2.83656775        2.16923043       -0.83152000
 C           -2.09227010        3.06612956       -1.69924090
 C           -3.61488589       -0.08940867       -1.32823085
 C           -2.95086739       -1.03988682       -2.20551476
 C           -3.58884193        1.25182073       -1.67678227
 C           -0.77719023       -0.95154381       -3.24042419
 C            0.21544387       -0.02371870       -3.56601653
 C           -2.12076929       -0.55483919       -3.21467698
 C            0.64690489        2.26396899       -4.35025113
 C           -0.27738026        3.28800582       -3.89201888
 C           -0.10414640        1.02876471       -4.42143750
 C           -2.57267801        2.84739098       -3.05479858
 C           -3.28361661        1.58431512       -3.05678891
 C           -2.49104681        0.64055506       -3.82681598
 C           -1.61584315        2.79766358       -4.14058502
 C           -1.49689483        1.40506323       -4.55647687
