   70
C70 / DATE: 7/ 1/2024 / Origin: Program Fullerene / C70 from database
 C            1.62845207        0.00675514        4.43534306
 C            0.80737842       -1.18033000        4.28979884
 C            1.32650378       -1.96004286        3.17766836
 C            2.65427223       -0.04238070        3.41206471
 C            2.53382323       -1.30549045        2.70722865
 C            2.56970646        1.17603978        2.62775332
 C            0.78685199        1.15706456        4.15739133
 C            1.36700451        1.87617806        3.04361475
 C           -0.57470756       -0.75098478        4.24067552
 C           -0.57739812        0.69018405        4.03133154
 C           -1.46290004       -1.51750317        3.50501751
 C            0.43168703       -2.48128450        2.24379125
 C           -0.93419813       -2.47672711        2.54114668
 C            0.84655353       -2.65322464        0.91717789
 C            2.79725631       -1.30487170        1.34632747
 C            2.11289088       -2.19800284        0.52505057
 C            2.84542918        1.08482386        1.26600475
 C            3.29927095       -0.13832063        0.77718817
 C            2.20574673        1.95938214        0.38102418
 C            0.53026859        2.37011544        2.05500107
 C            1.09425498        2.68274744        0.82446796
 C           -1.38006351        1.21764306        3.02210125
 C           -0.85496304        2.17484074        2.14079718
 C           -2.58401261       -0.85398143        2.86732161
 C           -2.53694226        0.52544076        2.66992295
 C           -1.90118722       -2.58450186        1.46044503
 C           -3.01867655       -1.71353644        1.78028576
 C           -0.09903149       -2.99322246       -0.05440931
 C           -1.43554209       -2.65913279        0.15531368
 C            0.31944280       -3.24703990       -1.35394380
 C            2.50674833       -2.29713456       -0.81168584
 C            1.70493865       -3.00751301       -1.70337923
 C            3.73596647       -0.19667972       -0.53434127
 C            3.48001179       -1.41204106       -1.28449926
 C            2.45034665        1.82911010       -0.99112515
 C            3.41404270        0.91486669       -1.40972713
 C            1.49291763        2.27084502       -1.90719244
 C            0.33470565        3.40548242       -0.08117313
 C            0.57235730        3.22770913       -1.50151959
 C           -1.67781587        2.72897170        1.15296042
 C           -1.10006735        3.48513834        0.13232421
 C           -3.41639990        1.09964578        1.76197006
 C           -2.97954975        2.24942260        0.99089345
 C           -3.75906069       -1.15721077        0.75013210
 C           -4.16868343        0.22934050        0.87353970
 C           -2.16660398       -2.08039306       -0.88773524
 C           -3.32742527       -1.36651897       -0.62236542
 C           -0.49633702       -2.73395869       -2.43928539
 C           -1.53915946       -1.87862094       -2.11106048
 C            1.73898882       -2.71235479       -3.12799696
 C            0.38204723       -2.39043874       -3.53658291
 C            3.53314259       -1.04762013       -2.68974531
 C            3.35560107        0.39424649       -2.76491800
 C            2.60396254       -1.65891832       -3.61493576
 C            1.18602088        1.47889611       -3.01742002
 C            0.37361137       -1.02436212       -4.01305229
 C            2.16622713        0.65170269       -3.55104915
 C            1.75817859       -0.60518226       -4.15577639
 C           -1.61697443       -0.61329498       -2.71034189
 C           -0.15004476        1.19571901       -3.30029615
 C           -0.53699831       -0.13088581       -3.45805265
 C           -0.71245679        3.27799514       -2.17373423
 C           -1.73537040        3.51641554       -1.17214608
 C           -1.11571879        2.13132366       -2.96477688
 C           -3.55324847        2.13184408       -0.34646498
 C           -4.15411265        0.81905134       -0.45194285
 C           -3.56246143       -0.14203573       -1.36555011
 C           -2.59567324        0.28942953       -2.27394833
 C           -2.83142637        2.60563079       -1.42912840
 C           -2.39139808        1.66174025       -2.45177294
