   70
C70 / DATE: 7/ 1/2024 / Origin: Program Fullerene / C70 from database
 C            1.57010334        0.06831131        4.57980205
 C            0.77333297       -1.14025688        4.49317769
 C            1.37325724       -2.00932349        3.49637129
 C            2.64875759       -0.04601461        3.61665655
 C            2.53891841       -1.32504975        2.95175191
 C            2.62069756        1.13667337        2.79451795
 C            0.72876788        1.18027584        4.16589317
 C            1.38100949        1.84257689        3.05864603
 C           -0.60552945       -0.74196403        4.31247920
 C           -0.60708254        0.67158455        3.96377957
 C           -1.43574917       -1.59041906        3.59770225
 C            0.54362473       -2.72033778        2.63044939
 C           -0.84196906       -2.65742199        2.79851886
 C            1.06561030       -3.13622777        1.40930676
 C            2.77531255       -1.38929735        1.58017594
 C            2.24535289       -2.46783595        0.88193699
 C            2.99715658        1.03132702        1.47041567
 C            3.13746474       -0.23078811        0.87621510
 C            2.62269256        2.07698214        0.64893078
 C            0.62489056        2.25638276        1.96030930
 C            1.31274599        2.55616355        0.77968984
 C           -1.32613702        1.07906080        2.84488890
 C           -0.73423215        1.92177754        1.88568493
 C           -2.50343179       -1.00744628        2.80595709
 C           -2.46560771        0.35073293        2.50684062
 C           -1.72587514       -2.89826739        1.66519822
 C           -2.82598602       -1.94732724        1.74773730
 C            0.17809260       -3.42179566        0.29303376
 C           -1.19356982       -3.22042063        0.42159803
 C            2.11554042       -2.39606570       -0.56193283
 C            0.85341480       -3.01098779       -0.92973377
 C            3.24978598       -0.28151484       -0.52048778
 C            2.52386721       -1.24909419       -1.22514943
 C            3.26101857        2.15006939       -0.57323646
 C            3.63498495        0.88622993       -1.18061668
 C            2.69198175        2.99138005       -1.59680825
 C            0.58741589        2.92015781       -0.36043445
 C            1.27203354        3.26702111       -1.52427775
 C           -1.45480811        2.25065316        0.73420871
 C           -0.76996935        2.60192014       -0.43721650
 C           -3.27913750        0.81684378        1.48702692
 C           -2.80602002        1.92488817        0.68388593
 C           -3.40347206       -1.46093244        0.57907029
 C           -3.87587781       -0.14860652        0.57735927
 C           -1.94890378       -2.96581858       -0.71863072
 C           -3.11706253       -2.10168782       -0.62661140
 C            0.10770151       -2.46627188       -1.96793346
 C           -1.27181424       -2.66506705       -1.96952554
 C            1.91924944       -0.92786707       -2.44521213
 C            0.66986263       -1.46922138       -2.77033532
 C            3.40347516        1.00190788       -2.60672384
 C            2.97736017        2.36631856       -2.87413435
 C            2.44052504        0.10856159       -3.21621171
 C            0.69378111        2.92177285       -2.81025529
 C            1.73317366        2.29754854       -3.61214174
 C            1.54120156        0.92033103       -4.02225185
 C           -1.37430332        2.45393308       -1.69709694
 C           -0.57538285        2.36189703       -2.83493769
 C           -3.47446923        1.84063530       -0.59602290
 C           -4.12099596        0.53820090       -0.67680435
 C           -2.69050088        2.01836998       -1.79542570
 C           -3.25124062       -1.39764556       -1.89600475
 C           -2.13599777       -1.79037043       -2.74454700
 C           -3.70949867       -0.08644539       -1.91817163
 C           -2.99213904        0.91472127       -2.68978156
 C           -0.11530015       -0.84624039       -3.73918665
 C            0.23928857        0.48344030       -4.19480358
 C           -0.84204739        1.35575071       -3.76594159
 C           -1.56132927       -0.86729640       -3.60520062
 C           -2.01800953        0.51692616       -3.59543009
