   70
C70 / DATE: 7/ 1/2024 / Origin: Program Fullerene / C70 from database
 C            1.31438134        0.04696146        5.04616059
 C            2.52284861        0.04614376        4.24107280
 C            2.56480981       -1.21406525        3.52160657
 C            0.51370567       -1.10003536        4.64371719
 C            1.27167145       -1.85347384        3.66480134
 C           -0.80172879       -0.62084872        4.27337227
 C            0.45714234        1.21611766        5.02926441
 C           -0.87114380        0.78881951        4.61781057
 C            0.82898726        2.35162355        4.20512376
 C            2.75049749        1.11112475        3.27443499
 C            1.93109445        2.23191187        3.26009516
 C            3.04024308       -0.94568970        2.17633234
 C            3.13082893        0.49399685        2.01482414
 C            2.50063632       -1.67613834        1.12524894
 C            0.63881186       -2.28879799        2.50650941
 C            1.42758118       -2.52933305        1.38623501
 C           -1.34798302       -1.02764959        3.06184017
 C           -0.72668473       -2.04050111        2.32312885
 C           -2.20971266       -0.15579344        2.40677625
 C           -1.35364204        1.72242535        3.61156989
 C           -0.35004804        2.75354057        3.45709018
 C           -1.95103246        1.21135613        2.46336351
 C            1.47843851        2.76136166        1.98652243
 C            0.07040288        3.08878481        2.11329936
 C            2.71132269        1.04486296        0.80464464
 C            1.90681917        2.18750095        0.79057984
 C            2.63563442       -1.16095247       -0.16071407
 C            2.71535113        0.22669958       -0.32685080
 C            2.26640519       -1.96202741       -1.23889096
 C            0.85209614       -3.21201556        0.32698616
 C            1.38542314       -3.01778302       -1.01013788
 C           -1.34412227       -2.49308539        1.14915812
 C           -0.59693062       -3.22254690        0.22477370
 C           -2.94379958       -0.64149327        1.34139889
 C           -2.53466947       -1.89668169        0.73503101
 C           -3.27701532        0.26932960        0.26527728
 C           -1.85777100        1.92851608        1.26388218
 C           -0.75730574        2.75978966        1.04893354
 C           -2.56691702        1.46444870        0.15042400
 C            1.15707185        2.44482893       -0.35601485
 C           -0.19616091        2.77127615       -0.21734054
 C            2.38657994        0.78621665       -1.56135434
 C            1.60776684        1.94459124       -1.57550839
 C            2.40094962       -1.45630527       -2.52673338
 C            2.47358672       -0.01699093       -2.69536392
 C            1.55756777       -1.98736056       -3.58328919
 C            0.29795400       -3.26928685       -1.94308866
 C           -0.93934541       -3.16666258       -1.19090149
 C            0.36304168       -2.72339266       -3.21398070
 C           -2.85290663       -1.81877430       -0.68516370
 C           -3.51353754       -0.54428645       -0.91306602
 C           -1.94227182       -2.30293364       -1.62110494
 C           -3.40976147        0.04905391       -2.15672635
 C           -2.24801421        1.94439797       -1.12690271
 C           -1.03926109        2.62997537       -1.31033135
 C           -2.93811255        1.41863461       -2.22267222
 C            0.91304692        2.31241619       -2.72518067
 C           -0.46419630        2.73769657       -2.57276414
 C            1.74334010        0.33334187       -3.90237051
 C            1.16110442       -0.88491150       -4.44030993
 C            0.99731401        1.50104452       -3.92693934
 C           -0.78268715       -1.98939840       -3.72633981
 C           -1.86758318       -1.71567378       -2.88995928
 C           -2.73352368       -0.67299217       -3.21745427
 C           -0.27824578       -0.95834915       -4.62505431
 C           -2.44665910        1.62736181       -3.57200342
 C           -1.19815349        2.32899411       -3.75104931
 C           -0.31938444        1.49132178       -4.55059981
 C           -2.32011179        0.31782690       -4.19676470
 C           -0.99403386        0.22193627       -4.77836352
