   70
C70 / DATE: 7/ 1/2024 / Origin: Program Fullerene / C70 from database
 C            1.36308836       -0.08603174        5.18671903
 C            0.61142204       -1.32819698        5.19275895
 C            1.49071001       -2.35978265        4.69065314
 C            2.53034990       -0.28609029        4.34226163
 C            2.64541548       -1.70158242        4.08877865
 C            2.41505416        0.61131090        3.20895679
 C            0.53535230        0.92695650        4.55706790
 C            1.27735130        1.47759443        3.44926213
 C           -0.65300326       -1.08541792        4.51491214
 C           -0.75606446        0.34634157        4.26503239
 C           -1.12833099       -1.97616108        3.54675660
 C            0.96506857       -3.29511602        3.71894842
 C           -0.35993721       -3.07571809        3.15610756
 C            2.73622737       -2.15169922        2.71433030
 C            1.89806905       -3.32561559        2.60825752
 C            2.61432582        0.14273671        1.90638529
 C            2.71201453       -1.23335959        1.66119447
 C            2.20015608        0.97255502        0.85709157
 C            0.57054607        1.89709478        2.33718392
 C            1.26089216        1.96594658        1.13779262
 C           -1.42435179        0.76873118        3.11985247
 C           -0.81325689        1.70560326        2.27597520
 C           -2.12639534       -1.52913412        2.68671599
 C           -2.35881281       -0.09867879        2.57666960
 C           -2.21945932       -2.08361895        1.34385752
 C           -0.28420097       -3.42890401        1.74383372
 C            1.12302269       -3.48519385        1.39858711
 C           -1.16362236       -2.83078550        0.83666514
 C            2.37660600       -1.70135987        0.39087713
 C            1.51243873       -2.79716928        0.26775542
 C            2.34655923        0.53688652       -0.46481705
 C            2.48908274       -0.83412155       -0.69624803
 C            1.93474419        1.38656969       -1.50603012
 C            0.64367384        2.62131985        0.08815782
 C            1.22492656        2.54463584       -1.17094792
 C           -1.45435688        2.09218576        1.09448149
 C           -0.72543874        2.86969179        0.19538299
 C           -2.87942585        0.16244258        1.25183673
 C           -2.84777183       -1.08011115        0.50799293
 C           -2.50617360        1.32023831        0.58456760
 C           -2.52543390       -1.00751228       -0.83721462
 C           -0.73589446       -2.60212685       -0.48215785
 C            0.61603659       -2.78913477       -0.78447565
 C           -1.53799592       -1.85043590       -1.35640579
 C            2.15486461       -1.34637898       -1.94403789
 C            1.10616159       -2.34622200       -1.99570873
 C            1.93271924        0.91968477       -2.82915325
 C            1.94998298       -0.44829051       -3.05762828
 C            1.48305096        1.74002659       -3.86228391
 C            0.74307788        3.39103278       -2.16144108
 C            0.94568773        3.04587072       -3.55078672
 C           -1.39661680        3.37929944       -0.90751271
 C           -0.61469140        3.87708165       -2.02369552
 C           -2.76964454        1.38305259       -0.78673824
 C           -2.81309204        0.18032819       -1.50496458
 C           -2.47438504        2.57426425       -1.44466715
 C           -2.71609901        0.18117335       -2.88981754
 C           -1.13670544       -1.67587947       -2.68803329
 C            0.18149240       -1.95628796       -3.03442617
 C            0.91370676       -1.03867588       -3.89077996
 C           -1.87746770       -0.82659923       -3.51097109
 C            0.64365352        1.16033891       -4.90105752
 C            0.20851154       -0.21876735       -4.75658954
 C           -1.24130723       -0.21987554       -4.67224663
 C           -0.33228501        3.18351340       -4.23708497
 C           -1.32685748        3.54970308       -3.24500243
 C           -2.38151489        2.60874617       -2.89428206
 C           -2.53592041        1.42882526       -3.61060878
 C           -0.54042991        1.99157322       -5.03560343
 C           -1.69909950        1.15667977       -4.77024139
