   70
C70 / DATE: 7/ 1/2024 / Origin: Program Fullerene / C70 from database
 C            1.41604071        0.04052902        4.88240040
 C            0.63938558       -1.16206307        4.64858538
 C            1.35311205       -1.98895425        3.69118412
 C            2.62735778       -0.05675513        4.09219267
 C            2.59795196       -1.30968736        3.35777032
 C            2.74855875        1.16980019        3.33635656
 C            0.64912806        1.16326334        4.36672182
 C            1.44152514        1.80994551        3.34323749
 C           -0.70798403       -0.75029652        4.32275492
 C           -0.66004809        0.66993549        4.00633173
 C           -1.45158964       -1.57328839        3.49219795
 C            0.63461605       -2.62674494        2.68091460
 C           -0.76156409       -2.58469144        2.69763101
 C            1.29380179       -2.95831298        1.50140523
 C            3.04978092       -1.32479986        2.03848089
 C            2.53935808       -2.28394804        1.16772155
 C            3.43022805        1.11541250        2.13639066
 C            3.66690104       -0.18575985        1.51663106
 C            2.99934176        1.99323918        1.07189952
 C            0.84520699        2.14177781        2.12464887
 C            1.66695813        2.40729463        1.02981495
 C           -1.24690055        1.10169652        2.82167259
 C           -0.51287623        1.88248217        1.91191666
 C           -2.44120022       -0.96102884        2.62606921
 C           -2.36312470        0.40490331        2.36828245
 C           -1.51031036       -2.75419085        1.45760289
 C           -2.65982264       -1.86934773        1.51523500
 C            0.54021174       -3.13901125        0.26992874
 C           -0.83297974       -2.90241796        0.25164839
 C            2.54885607       -2.04670401       -0.26939016
 C            1.35801351       -2.65067359       -0.82727487
 C            3.69391422        0.03028686        0.07409268
 C            3.60327581        1.46643394       -0.13165566
 C            2.98347793       -0.82635833       -0.76690759
 C            3.11971985        1.92616888       -1.33725813
 C            1.10322733        2.71543001       -0.21062248
 C            1.96774627        2.80485659       -1.30023067
 C           -1.08795831        2.21876265        0.68221085
 C           -0.26929791        2.50459342       -0.41731695
 C           -3.05728050        0.90244665        1.27805197
 C           -2.43614713        1.94462981        0.48403305
 C           -3.16353283       -1.35058224        0.33200694
 C           -3.64304064       -0.04383447        0.34701721
 C           -1.43308159       -2.45240583       -0.92933574
 C           -2.71170678       -1.87915117       -0.87472256
 C            0.72581520       -2.04052773       -1.89637127
 C           -0.63188996       -2.26465666       -2.06121962
 C            2.44880456       -0.33302927       -1.96379405
 C            2.81534960        0.95127896       -2.36107921
 C            1.32091439       -0.94914416       -2.53670826
 C            1.43530404        2.81087572       -2.64063042
 C            2.00946462        1.65855823       -3.32906414
 C           -0.82056293        2.55465377       -1.71441341
 C            0.00523348        2.73976178       -2.82044176
 C           -2.95775981        1.83018430       -0.86464799
 C           -3.82310276        0.65597961       -0.90878449
 C           -2.12635972        2.10784478       -1.94322736
 C           -3.31463074       -1.43580756       -2.04929802
 C           -3.87534934       -0.09140373       -2.07506602
 C           -1.20778593       -1.91580179       -3.26963650
 C           -2.63096775       -1.65405553       -3.30734904
 C            0.66908696       -0.36969555       -3.64023832
 C            0.91794311        0.96249009       -3.96556689
 C           -0.19428499        1.89698099       -3.98071680
 C           -0.53706390       -0.91726131       -4.08503115
 C           -2.48639055        1.63397213       -3.20959722
 C           -3.43867396        0.54072997       -3.30285794
 C           -2.85362062       -0.48904729       -4.14253584
 C           -1.45916014        1.39157875       -4.21040501
 C           -1.55756246       -0.00733889       -4.58164478
