   70
C70 / DATE: 7/ 1/2024 / Origin: Program Fullerene / C70 from database
 C            1.22312263        0.20471976        4.86538776
 C            2.51382247        0.03006220        4.23443502
 C            2.59445282       -1.34235588        3.76502681
 C            0.43422344       -0.99065574        4.60429037
 C            1.26866085       -1.92805813        3.87435856
 C           -0.82110878       -0.57533227        4.00769505
 C            0.42220164        1.35161316        4.49268808
 C           -0.89400088        0.86643169        4.11003486
 C            0.88324982        2.23095786        3.43000549
 C            2.88501482        0.89326527        3.12657985
 C            2.10015921        1.99729840        2.78311555
 C            3.24541017       -1.33621214        2.46383005
 C            3.41768329        0.05011137        2.06537491
 C            2.82708086       -2.25547777        1.51645673
 C            0.73971490       -2.57857631        2.76349605
 C            1.62461433       -3.02453146        1.78350179
 C           -1.22447073       -1.17925857        2.82289210
 C           -0.59673226       -2.35704248        2.41813251
 C           -1.98265924       -0.45124618        1.89745980
 C           -1.31675603        1.61477270        2.94296208
 C           -0.28520063        2.58695577        2.63785576
 C           -1.90695996        0.94243918        1.88318214
 C           -0.10944188        2.97231370        1.31245299
 C            2.29342418        2.56297683        1.52695778
 C            1.17925414        3.22759175        0.87098450
 C            3.21113268        0.43590916        0.74226559
 C            2.98070547        1.78336855        0.50925341
 C            2.76845354       -1.85503889        0.12160832
 C            2.79637945       -0.50513283       -0.21102644
 C            1.10797072       -3.46834659        0.50366168
 C            1.80632070       -2.72113934       -0.53241331
 C           -1.14527683       -3.06348074        1.35605574
 C           -0.25640371       -3.66525292        0.37287882
 C           -2.50998576       -1.10976936        0.78283213
 C           -2.25467905       -2.47092195        0.62936264
 C           -2.95614049       -0.36699719       -0.31862904
 C           -1.98551866        1.59632848        0.66341141
 C           -1.07094703        2.61345748        0.36640120
 C           -2.72057607        1.01033747       -0.35906913
 C           -0.90723378        3.01785413       -0.96132317
 C            1.44742927        3.20133472       -0.55337221
 C            2.48519965        2.20789490       -0.77974467
 C            0.38955030        3.23386550       -1.45301635
 C            2.20020823       -0.08432116       -1.40913307
 C            2.27858873        1.26383585       -1.77626467
 C            1.08131456       -2.23568593       -1.61433511
 C            1.36917544       -0.96557912       -2.12544396
 C           -0.86280407       -3.47034698       -0.93032992
 C           -2.23375986       -3.04731305       -0.70059982
 C           -0.12765420       -2.85197978       -1.94032129
 C           -3.37423048       -1.03715278       -1.47037870
 C           -2.89200934       -2.38549303       -1.72258632
 C           -3.40267439       -0.34146608       -2.74737514
 C           -2.90188842        1.72703169       -1.53791616
 C           -1.96218097        2.79071824       -1.84676979
 C           -3.22508783        1.03344108       -2.77311455
 C           -1.71702961        2.76458326       -3.27800613
 C           -2.41579499        1.61803672       -3.83257774
 C            0.69904729        2.83201434       -2.74885217
 C            1.60211897        1.70441413       -2.90666330
 C           -0.34913470        2.71034792       -3.73647761
 C            0.74028575       -0.54684673       -3.30229532
 C           -1.44055489        0.78542067       -4.52386553
 C            0.94210751        0.74638490       -3.76471970
 C           -0.15209922        1.44350361       -4.42344156
 C           -0.80553464       -2.44555532       -3.08193915
 C           -2.25614240       -2.36837448       -3.02636100
 C           -2.66835300       -1.15446347       -3.70270320
 C           -0.33056851       -1.28247333       -3.80901503
 C           -1.49648457       -0.58971446       -4.34680724
