   70
C70 / DATE: 7/ 1/2024 / Origin: Program Fullerene / C70 from database
 C            1.13362545       -0.05623313        4.91104041
 C            2.35603358       -0.26379410        4.15799929
 C            2.26337119       -1.57886946        3.54963863
 C            0.30249050       -1.23774828        4.72539478
 C            0.88778754       -2.01036221        3.65009672
 C           -1.06347332       -0.79797250        4.59187347
 C            0.31048125        1.10321394        4.62154324
 C           -1.06961161        0.65878029        4.63180126
 C            0.71868645        2.01987526        3.65898916
 C            2.71702663        0.67528919        3.10812625
 C            1.96022540        1.81906995        2.91661205
 C            2.83268888       -1.48565854        2.22874459
 C            3.13488367       -0.09650415        1.95054512
 C            2.24141918       -2.19538309        1.20490334
 C            0.17753505       -2.22854832        2.46512211
 C            0.89167945       -2.55786580        1.31082922
 C           -1.80644841       -1.18872160        3.41101770
 C           -1.15890199       -1.81997372        2.34410409
 C           -1.97143462        1.10748078        3.58340805
 C           -2.68220833       -0.07361848        3.12574451
 C           -0.25775935        2.58612842        2.74073777
 C           -1.53703780        2.03874183        2.63809783
 C            1.75507704        2.30992600        1.56594487
 C            0.45338929        2.95042817        1.52986060
 C            2.88409912        0.36804971        0.65375730
 C            2.16724086        1.55498926        0.46366945
 C            2.71272137       -1.91948923       -0.06067551
 C            2.90746828       -0.56934943       -0.38382658
 C            2.30419482       -2.78987563       -1.04936535
 C            0.18729441       -2.81939442        0.13209885
 C            0.92050312       -3.21890154       -0.98338673
 C           -1.75732494       -1.77117200        1.07649029
 C           -1.04942923       -2.19912476       -0.05118186
 C           -3.28444651       -0.02656168        1.88582921
 C           -2.93537590       -1.04607685        0.91108620
 C           -2.21501850        2.12357399        1.41865739
 C           -3.25557004        1.22879218        1.16774222
 C           -0.23279304        2.95615472        0.33113298
 C           -1.61755981        2.78545978        0.34151283
 C            1.56879147        1.80778768       -0.77769876
 C            0.47880090        2.68034154       -0.83246360
 C            2.66410238       -0.14015314       -1.69026002
 C            1.88504500        1.00866644       -1.88596097
 C            2.61079336       -2.45843877       -2.41781993
 C            2.83110633       -1.06278535       -2.72154144
 C            0.35950491       -3.04536304       -2.30867865
 C            1.48717723       -2.89937782       -3.21760660
 C           -1.44664708       -1.78172811       -1.33549916
 C           -0.76355941       -2.23773407       -2.46693642
 C           -3.25531979       -0.49686095       -0.39334213
 C           -3.59763040        0.90511875       -0.20191014
 C           -2.48289269       -0.85312276       -1.49082804
 C           -2.30401688        2.85674786       -0.86904276
 C           -3.25799187        1.80727458       -1.19334909
 C           -0.11249868        2.97322103       -2.04873825
 C           -1.55154127        3.14891362       -2.07878237
 C            1.30226940        1.28230723       -3.13751657
 C            0.26701277        2.21375026       -3.22200392
 C            2.22206874       -0.82191944       -4.00879644
 C            1.38032010       -1.97387660       -4.32334666
 C            1.41994228        0.36578955       -4.18177171
 C           -1.01514474       -1.64223578       -3.70501613
 C            0.06758566       -1.47001054       -4.65963795
 C            0.21283954       -0.04481215       -4.87385762
 C           -2.52966202       -0.04737720       -2.63118162
 C           -2.89786870        1.29176623       -2.50031927
 C           -2.07315771        2.30020471       -3.13302557
 C           -0.95496537        1.84980119       -3.93288407
 C           -1.80928498       -0.42901268       -3.75880401
 C           -1.03070760        0.57836317       -4.47709586
