   70
C70 / DATE: 7/ 1/2024 / Origin: Program Fullerene / C70 from database
 C            1.36256792        0.11139246        5.03561712
 C            0.60041315       -1.09464238        4.78015381
 C            1.49211694       -2.04604548        4.15753773
 C            2.62404443       -0.00811866        4.32012736
 C            2.69789340       -1.33677927        3.75777358
 C            2.71353196        1.11279783        3.41474849
 C            0.63141300        1.22717163        4.45769330
 C            1.54691794        1.95528718        3.61998373
 C           -0.60565266       -0.71979186        4.06192885
 C           -0.56708146        0.71729350        3.83902689
 C           -1.06346834       -1.52800051        3.02374691
 C            1.00688730       -2.74859530        2.99361067
 C           -0.34170839       -2.67574960        2.66330101
 C            2.83724929       -1.47708069        2.31379620
 C            1.96799714       -2.56286887        1.91883619
 C            3.12706968        0.91003703        2.09943115
 C            2.90518495       -0.34301277        1.50727665
 C            3.07295339        2.03439357        1.29216108
 C            1.05977138        2.60856512        2.49746362
 C            2.04500822        3.01198936        1.61298152
 C           -0.93087954        1.20072227        2.58376236
 C           -0.18675007        2.21821736        1.96280022
 C           -1.90453776       -0.94398694        2.07682365
 C           -1.78089873        0.42330735        1.80850283
 C           -2.54557703       -1.76333454        1.15353663
 C           -0.69023333       -3.31242106        1.48134304
 C           -1.94508480       -2.97746418        0.83817919
 C            1.48131399       -2.61617780        0.61844032
 C            0.31936467       -3.35641378        0.43424498
 C            2.44862097       -0.42425704        0.17988875
 C            1.74245625       -1.55571398       -0.25938669
 C            3.05645006        1.87471099       -0.14339115
 C            2.62590077        0.66497870       -0.68305892
 C            1.65319284        3.65603265        0.39086915
 C            2.49244190        3.10130087       -0.65550339
 C           -0.53560406        2.61234386        0.65247217
 C            0.28164485        3.50118896       -0.03596262
 C           -2.26077339        0.93645287        0.61132471
 C           -1.51161467        1.90106167       -0.06153200
 C           -3.40762129       -1.17881044        0.23112271
 C           -3.25692450        0.23905834       -0.05062120
 C           -3.64534488       -1.85582931       -1.03032203
 C           -1.79181617       -3.35659086       -0.55611854
 C           -0.36821588       -3.29880990       -0.83508532
 C           -2.66847685       -2.82674551       -1.48885641
 C            1.12731259       -1.53630383       -1.51687395
 C            0.08306403       -2.42546048       -1.81130826
 C            2.04965357        0.65083551       -1.96569053
 C            1.45717284       -0.53407363       -2.42892915
 C            1.67580360        3.00835196       -1.83037175
 C            0.33064824        3.43235706       -1.47743866
 C            1.77673943        1.87383430       -2.61383926
 C           -1.63860902        2.05335944       -1.46051658
 C           -0.70682164        2.82896752       -2.17342053
 C           -3.44759451        0.44467300       -1.47098954
 C           -3.78356526       -0.84112503       -2.05860248
 C           -2.58354550        1.28378498       -2.16663052
 C           -2.13330526       -2.33466048       -2.74892497
 C           -0.75012435       -2.17914824       -2.89994470
 C           -3.02758489       -1.28233770       -3.21353752
 C            0.91146811       -0.58625476       -3.71181484
 C           -0.27438830       -1.39534134       -3.94070790
 C            0.92183147        1.87382491       -3.70166795
 C           -0.39201589        2.45771181       -3.47801012
 C            0.73665710        0.65128391       -4.43582805
 C           -2.42314067        1.05369657       -3.53763697
 C           -2.50504177       -0.30964889       -4.04715523
 C           -1.23081300       -0.58869567       -4.67726289
 C           -1.34763665        1.70522672       -4.24766511
 C           -0.61030685        0.68407956       -4.97590088
