   70
C70 / DATE: 7/ 1/2024 / Origin: Program Fullerene / C70 from database
 C            1.57627713       -0.23128697        4.94999587
 C            0.74131025       -1.41459931        4.92979789
 C            1.26505634       -2.30032387        3.90608986
 C            2.58308646       -0.38424883        3.91348228
 C            2.31460100       -1.60838545        3.18933001
 C            2.60674303        0.84497033        3.16082702
 C            0.74627690        0.89927691        4.57386512
 C            1.47879944        1.65817279        3.57849651
 C           -0.59174070       -1.01414419        4.50643719
 C           -0.56370300        0.39817302        4.20541418
 C            0.13778335       -2.76111056        3.13847152
 C           -1.00006813       -1.91868151        3.45657930
 C            0.32349887       -3.03590329        1.79889520
 C            2.24492240       -1.56277704        1.79413211
 C            1.41019352       -2.46341371        1.12213208
 C            2.85341402        0.78735682        1.80119934
 C            2.70597669       -0.42842079        1.11553896
 C            2.61193243        1.94890308        1.09296282
 C            0.75957936        2.29867328        2.57196055
 C            1.45770317        2.67256276        1.42039292
 C           -1.10412196        0.83782339        3.00244388
 C           -0.60439523        2.01788899        2.45530472
 C           -1.73933285       -1.42866073        2.38013216
 C           -1.82988691       -0.04336046        2.18195320
 C           -0.83246787       -3.20890169        1.06987280
 C           -1.84273182       -2.25992109        1.26609384
 C           -0.67111817       -3.76094827       -0.18198126
 C            1.37383312       -2.44523594       -0.28084311
 C            0.49825237       -3.32404433       -0.92172241
 C            2.65065840       -0.40123352       -0.28622040
 C            1.81578278       -1.30222143       -0.95760460
 C            3.10534369        1.99200058       -0.19513428
 C            3.08793981        0.74918550       -0.94366822
 C            2.67968370        3.06012255       -1.06635794
 C            0.78087239        3.39155165        0.43110780
 C            1.45039986        3.75009313       -0.73643593
 C           -1.32092752        2.61432622        1.43288064
 C           -0.61271225        3.42653563        0.46043681
 C           -2.36859003        0.44253676        0.98034121
 C           -2.29384543        1.80957269        0.71478781
 C           -2.58119771       -1.82187516        0.16988097
 C           -2.68127079       -0.44412261       -0.06026728
 C           -1.80263548       -3.75418087       -1.07590208
 C           -2.79827104       -2.72578864       -0.86699099
 C            0.06801497       -3.05112992       -2.27908897
 C           -1.28032542       -3.58696203       -2.41436122
 C            1.26466407       -0.95877249       -2.20796009
 C            0.38136534       -1.82560148       -2.85663302
 C            2.58705899        1.05092651       -2.27089503
 C            2.53672095        2.50008082       -2.39625405
 C            1.55253149        0.28087055       -2.79256305
 C            0.70027621        3.90117429       -1.97039327
 C            1.36488766        3.10278865       -2.99077143
 C           -1.36905048        3.36757967       -0.77958872
 C           -2.32319160        2.27708406       -0.65992193
 C           -0.71379680        3.56295424       -1.98376080
 C           -2.86083526        0.04930692       -1.36430585
 C           -2.44224469        1.34586531       -1.68328512
 C           -3.18325296       -2.24130086       -2.17318957
 C           -2.26825619       -2.82654374       -3.14897503
 C           -3.21065052       -0.81354211       -2.39871156
 C           -0.41516517       -1.33113081       -3.88788387
 C           -1.80136083       -1.75424575       -3.99678958
 C           -2.61592321       -0.59068216       -3.69619349
 C            0.63519863        0.86470810       -3.67840542
 C            0.37380566        2.22660488       -3.56972625
 C           -0.92882496        2.61854079       -3.06396602
 C           -1.88714872        1.61597494       -2.94457478
 C           -0.41986677        0.09204863       -4.14041269
 C           -1.76553398        0.56746715       -3.84949731
