   70
C70 / DATE: 7/ 1/2024 / Origin: Program Fullerene / C70 from database
 C            1.29610542       -0.14576270        4.02889343
 C            2.43300645       -0.35887327        3.15236666
 C            2.35111834       -1.72057236        2.64504135
 C            0.45542753       -1.33097332        3.96563601
 C            1.05958421       -2.26061206        3.04422234
 C           -0.89595120       -0.90485572        3.70974376
 C            0.45423269        1.01660293        3.81710597
 C           -0.90716687        0.54738267        3.63385154
 C            0.92303460        2.04457481        3.01768262
 C            2.84290081        0.66026358        2.29908602
 C            2.20698542        1.90104988        2.34476495
 C            3.61047753        0.32608684        1.19069997
 C            2.84413422       -2.01094838        1.37353057
 C            3.59567148       -1.04586391        0.70172600
 C            2.24286302       -3.03510844        0.63908573
 C            0.27417188       -2.89315204        2.08721370
 C            0.95763264       -3.55842792        1.07631533
 C           -1.68049328       -1.60842394        2.80507777
 C           -1.07079883       -2.50403220        1.89890646
 C           -2.87804892       -0.99489406        2.46207717
 C           -1.74187885        1.14993431        2.69273320
 C           -2.89309272        0.45619815        2.34831854
 C            0.00910806        2.68514628        2.08783476
 C           -1.20912449        2.08077749        1.79297073
 C            2.16556868        2.73920799        1.15759833
 C            0.80609864        3.24191032        1.01515868
 C            3.65576275        1.21551595        0.03862297
 C            2.87309175        2.37161721        0.01698851
 C            3.54903111       -0.99145774       -0.74992367
 C            3.77074274        0.38404771       -1.15356311
 C            2.20428517       -2.94623291       -0.81345673
 C            2.61084485       -1.76621551       -1.42046853
 C            0.24595523       -4.01638621       -0.09162761
 C            0.98918366       -3.59027672       -1.26673752
 C           -1.79591494       -2.99008679        0.78776556
 C           -1.12198550       -3.59924794       -0.26390258
 C           -3.67284587       -1.53729019        1.39202237
 C           -3.03833660       -2.44912656        0.47405729
 C           -3.59914379        0.79840135        1.13389832
 C           -4.20416117       -0.42286652        0.62614255
 C           -1.76422236        2.23431634        0.51220366
 C           -3.02262065        1.67924128        0.22721025
 C            0.26035070        3.34516419       -0.25498194
 C           -1.06872796        2.96773796       -0.46926092
 C            2.48292261        2.91520256       -1.20499789
 C            1.13572231        3.44949434       -1.33704426
 C            3.22353611        0.82668049       -2.34613706
 C            2.79821412        2.20734861       -2.43258627
 C            1.79873122       -1.17317115       -2.39466304
 C            2.21190607        0.00758221       -2.99778498
 C            0.08702759       -2.83816661       -2.11501197
 C           -1.25044350       -3.02320105       -1.59383122
 C            0.46906221       -1.57480500       -2.54204126
 C           -3.24937945       -1.94582627       -0.87554877
 C           -4.05229006       -0.73531625       -0.78348537
 C           -2.19605406       -2.02446369       -1.78934190
 C           -3.46957243        1.60991086       -1.08891262
 C           -3.78522650        0.30805248       -1.65353729
 C           -1.57803093        3.06907899       -1.76189656
 C           -2.78159914        2.35270984       -2.11571086
 C            0.67049612        3.16389853       -2.68623633
 C            1.63091894        2.25974720       -3.29243767
 C            1.21415489        0.89465184       -3.56930253
 C           -0.67390779        2.90105053       -2.88081884
 C           -0.51403500       -0.63258780       -2.85876920
 C           -1.86154219       -0.90071772       -2.55380855
 C           -2.82389625        0.09254970       -2.71506584
 C           -2.42824944        1.40716290       -3.16830024
 C           -0.13866543        0.58084974       -3.45540449
 C           -1.04265556        1.63879494       -3.49995542
