   70
C70 / DATE: 7/ 1/2024 / Origin: Program Fullerene / C70 from database
 C            1.57793640        0.10482060        4.82093005
 C            0.77318738       -1.09381695        4.67205452
 C            1.60585039       -2.08193952        4.02967988
 C            2.72277822       -0.02588955        3.93287834
 C            2.79125132       -1.40357600        3.51686688
 C            2.60749865        0.99660791        2.91343518
 C            0.78549887        1.22380593        4.34885055
 C            1.54150754        1.89479149        3.31769832
 C           -0.47518689       -0.71955447        4.02846647
 C           -0.52647617        0.73345871        3.99022802
 C           -0.92926954       -1.43853209        2.91683918
 C            1.04424215       -2.83268204        2.92892488
 C           -0.27918848       -2.62564127        2.54171305
 C            2.87304729       -1.69829892        2.09847102
 C            2.05469099       -2.87261076        1.88971957
 C            2.71289818        0.66868965        1.55675704
 C            2.80577749       -0.67382432        1.15175571
 C            2.28460122        1.62568455        0.63454944
 C            0.83927460        2.52172794        2.30394298
 C            1.49930889        2.68712400        1.10113343
 C           -1.16624154        1.32994462        2.91419348
 C           -0.55484706        2.41019718        2.26515839
 C           -1.79777599       -0.79836032        2.01994896
 C           -2.07112046        0.56147247        2.19809273
 C           -2.17444342       -1.43016266        0.83042536
 C           -0.67845404       -3.27689872        1.38031437
 C           -1.74358400       -2.71667469        0.57343478
 C            1.62963123       -3.15014079        0.60232083
 C            0.36239247       -3.70578800        0.46235484
 C            2.46820504       -1.02654958       -0.16103648
 C            2.11214468       -2.35396080       -0.43493525
 C            2.28391343        1.31000703       -0.72436354
 C            2.23014084       -0.02716018       -1.11167148
 C            1.98175625        2.30131046       -1.64998064
 C            0.93414684        3.57213945        0.20266834
 C            1.33789748        3.51172962       -1.18320989
 C           -1.23893625        3.01994924        1.20332640
 C           -0.50693525        3.74651438        0.25424793
 C           -2.89845030        1.21920313        1.30143527
 C           -2.51651163        2.55696546        0.88341256
 C           -2.74978812       -0.69176168       -0.20016846
 C           -3.35992853        0.51099901        0.12484216
 C           -2.46211986       -1.01091372       -1.53979070
 C           -1.51464191       -3.11476060       -0.80417893
 C           -0.22055654       -3.78566716       -0.86063164
 C           -1.88217718       -2.25648763       -1.84232397
 C            1.78826962       -2.71972371       -1.73595525
 C            0.60455543       -3.54404116       -1.94773547
 C            1.85844783       -0.36870809       -2.41941204
 C            1.81329582       -1.71385997       -2.77925815
 C            1.35049607        1.93267343       -2.89989700
 C            1.30781541        0.59810932       -3.27357088
 C            0.15960315        3.74406606       -2.00091878
 C           -0.98310368        3.87225171       -1.11846764
 C            0.13739874        2.72985984       -3.03677476
 C           -3.05073721        2.76141528       -0.45108534
 C           -3.59191948        1.49128133       -0.90909850
 C           -2.18015597        3.28018515       -1.48708644
 C           -2.65265130       -0.05413529       -2.55620556
 C           -1.06032842        2.09096882       -3.36155645
 C           -3.06442012        1.22913154       -2.22559585
 C           -2.21131269        2.34600005       -2.60648870
 C            0.30796159        0.23658766       -4.17173232
 C           -1.93480575       -0.16441226       -3.73655432
 C           -0.98449020        0.88633654       -4.05859478
 C           -1.32196920       -2.48207062       -3.10091272
 C           -0.01519831       -3.10829767       -3.17996986
 C            0.88191193       -2.15180849       -3.80191614
 C           -1.32814360       -1.42673444       -4.08649739
 C            0.05653566       -1.16056543       -4.45349561
