   70
C70 / DATE: 7/ 1/2024 / Origin: Program Fullerene / C70 from database
 C            1.52316960       -0.38629231        5.12097299
 C            0.65156882       -1.53393239        4.94523047
 C            1.21152194       -2.35001308        3.88678461
 C            2.57343959       -0.46095673        4.11766248
 C            2.37018495       -1.66351521        3.34511811
 C            2.60317930        0.80097147        3.41235855
 C            0.74411281        0.80327982        4.83736426
 C            1.52351293        1.62929097        3.93536874
 C           -0.63661074       -1.05222785        4.47532876
 C           -0.57253590        0.39099931        4.39326856
 C            0.13594266       -2.67220811        2.96512725
 C           -0.97607136       -1.78891435        3.27281242
 C            0.46315371       -2.83754725        1.62598099
 C            2.47437947       -1.60311196        1.96181236
 C            1.77244637       -2.55892921        1.23878754
 C            2.83166782        0.80921315        2.03645461
 C            2.80106502       -0.39737688        1.31886865
 C            2.56419232        1.99908417        1.36633860
 C            0.84196480        2.43717863        3.03246143
 C            1.56570084        2.88777535        1.93377743
 C           -1.08323722        1.01385850        3.26335528
 C           -0.53554491        2.23874940        2.88545289
 C           -1.58009664       -1.11240144        2.21546213
 C           -1.78915293        0.26589674        2.31049241
 C           -0.54300479       -2.64495092        0.68243207
 C           -1.52695537       -1.69256726        0.95098007
 C           -0.26486833       -2.97798016       -0.64170008
 C            2.09545637       -2.71015510       -0.09541708
 C            1.06638490       -3.19049591       -0.99158910
 C            2.78169789       -0.37086315       -0.08448594
 C            2.72515424       -1.58523474       -0.76205239
 C            2.38495930        1.99454607       -0.07356516
 C            2.37634854        0.78778066       -0.75097682
 C            0.87060675        3.54152923        0.84251284
 C            1.38650002        2.99344158       -0.40658002
 C           -1.23218114        2.98856109        1.95000818
 C           -0.48962817        3.76848553        0.97245356
 C           -2.36801353        0.94236838        1.23272273
 C           -2.31666844        2.33725020        1.24077769
 C           -2.16963986       -1.06627534       -0.10970143
 C           -2.61321696        0.25767072        0.02905249
 C           -1.17381301       -2.63761104       -1.64414936
 C           -2.15768128       -1.67926971       -1.36120734
 C           -0.82271871       -2.92695117       -2.96707988
 C            1.50890724       -2.83183135       -2.32081329
 C            2.29412294       -1.61654430       -2.15187222
 C            0.58026092       -2.87084086       -3.34308235
 C            1.69373386        0.69650971       -1.96813776
 C            1.85602153       -0.44163057       -2.75903418
 C            0.51883853        2.75854928       -1.47214435
 C            0.72674807        1.65588083       -2.30335699
 C           -1.29668367        3.84080613       -0.22793715
 C           -2.50621681        3.06829507        0.01056744
 C           -0.72976970        3.37060920       -1.47876808
 C           -3.07353023        0.96451544       -1.09577832
 C           -2.78118978        2.32031645       -1.19041025
 C           -1.81340861        2.73043371       -2.19382968
 C           -2.92340321       -1.11867108       -2.37541299
 C           -3.20306678        0.29806083       -2.31057160
 C           -1.58031639       -2.36298599       -4.06611421
 C           -2.63016513       -1.41825499       -3.76604516
 C            0.68422527       -1.85431348       -4.36740245
 C            1.16833756       -0.54321006       -3.96738524
 C           -0.63348550       -1.70148622       -4.95232241
 C           -0.18661060        1.39704501       -3.33100694
 C           -1.51863745        1.80831023       -3.18541684
 C           -2.52658439        0.88867181       -3.45215092
 C           -2.28928634       -0.16043486       -4.41627157
 C            0.12640260        0.42161494       -4.27511761
 C           -0.95191559       -0.28756456       -4.94926144
