   70
C70 / DATE: 7/ 1/2024 / Origin: Program Fullerene / C70 from database
 C            1.71781146        0.11886246        4.43371438
 C            0.88029444       -1.04280131        4.21238403
 C            1.44553138       -1.80667449        3.11592582
 C            2.68940221        0.16782964        3.35640811
 C            2.47233777       -0.98234356        2.50323580
 C            2.61319694        1.48348143        2.75883170
 C            0.87552059        1.29450370        4.31213526
 C            1.54821853        2.21940715        3.42601165
 C           -0.49195205       -0.59247640        4.07363186
 C           -0.46274548        0.85616896        3.95514040
 C           -1.30713219       -1.30348376        3.20766594
 C            0.55576341       -2.47776978        2.28581309
 C           -0.78988717       -2.46835049        2.64201554
 C            0.87501472       -2.63229811        0.93652085
 C            2.43615231       -0.79701163        1.12713477
 C            1.77753956       -1.73791537        0.34164423
 C            2.72673292        1.60332997        1.37782594
 C            2.75136883        0.45004975        0.57803421
 C            2.34814626        2.81348105        0.80281192
 C            0.76211161        3.05823143        2.65152999
 C            1.29912185        3.52242949        1.38682459
 C           -1.10723706        1.46423439        2.87511954
 C           -0.62836376        2.68551677        2.40377296
 C           -2.26622979       -0.59884577        2.48562870
 C           -1.95217128        0.69482188        2.06827653
 C           -3.19244357       -1.33542552        1.75711291
 C           -1.65860446       -3.27561288        1.92534896
 C           -3.00169325       -2.77282536        1.70524394
 C            0.02641495       -3.40821394        0.13980821
 C           -1.19427291       -3.83653883        0.66709151
 C            0.21170073       -3.43495925       -1.24148515
 C            1.86875885       -1.64179251       -1.04412941
 C            1.23698371       -2.59443629       -1.83526767
 C            2.78565610        0.58788723       -0.81233776
 C            2.35986302       -0.46864759       -1.62562009
 C            2.61422140        3.01721296       -0.54289454
 C            2.94390093        1.86238337       -1.35795842
 C            1.69452555        3.84242312       -1.30693569
 C            0.15897936        3.89495952        0.56873063
 C           -0.95570491        3.10038646        1.05063750
 C            0.34754871        4.02023590       -0.79670136
 C           -2.16063850        1.04902584        0.72685650
 C           -1.56452280        2.18919985        0.19526381
 C           -3.51710162       -0.89687078        0.41120432
 C           -2.79255923        0.15590829       -0.13285371
 C           -3.45481858       -3.24309730        0.41163876
 C           -2.34432605       -3.93634968       -0.21492458
 C           -3.74986223       -2.07520643       -0.39828094
 C           -0.95080390       -3.39761703       -2.12518281
 C           -2.21676326       -3.42187564       -1.56111527
 C           -3.01503452       -2.20624492       -1.63791303
 C            0.76941970       -2.22505694       -3.15853819
 C           -0.67229358       -2.39497776       -3.13537094
 C            2.22463196       -0.27229387       -3.00154986
 C            1.28367158       -1.08619201       -3.75366551
 C            2.48891427        2.13868323       -2.71109130
 C            1.59390679        3.28266881       -2.64034126
 C            2.13314259        1.07854629       -3.52823103
 C           -0.54232766        3.29816638       -1.69126033
 C           -1.35261552        2.28026760       -1.18399938
 C            0.18284267        3.08711404       -2.93227806
 C           -2.42697911        0.13320015       -1.48260027
 C           -2.43259271       -1.07433701       -2.19823863
 C           -1.48782028       -1.26604140       -3.20275086
 C           -1.76880036        1.24090515       -2.02394447
 C            0.34454032       -0.17481565       -4.38113525
 C            0.87992139        1.16690518       -4.26048508
 C           -0.17573238        2.02192464       -3.74158693
 C           -1.02385070       -0.15664754       -3.89355402
 C           -1.26592854        1.15569468       -3.32275310
