   70
C70 / DATE: 7/ 1/2024 / Origin: Program Fullerene / C70 from database
 C            1.24571028       -0.06115725        4.46237101
 C            2.59895591       -0.30590686        4.00406742
 C            2.65671908       -1.67538356        3.52987967
 C            0.44172834       -1.23163192        4.13369509
 C            1.29691783       -2.19003507        3.47799052
 C           -0.73960489       -0.77868117        3.43893260
 C            0.54168278        1.10905782        3.97211269
 C           -0.76320670        0.66954479        3.51876123
 C            1.22359375        2.05978473        3.22491326
 C            3.15539264        0.54474500        2.96617205
 C            2.53846095        1.75302684        2.67095802
 C            3.43986169       -1.69105786        2.30626861
 C            3.57941508       -0.30963911        1.86863909
 C            3.12470149       -2.65173491        1.36125972
 C            0.87636967       -2.79956829        2.30015731
 C            1.87647203       -3.37575787        1.52557771
 C           -1.11588681       -1.38185734        2.23851374
 C           -0.33199158       -2.40550916        1.68641345
 C           -2.02712297       -0.69825080        1.42833124
 C           -1.40212753        1.34974938        2.49505988
 C           -2.31675807        0.63375535        1.73586282
 C            0.49221519        2.81987879        2.22525365
 C           -0.82690290        2.49695286        1.93463825
 C            2.55369628        2.23172102        1.30019907
 C            1.38868800        3.08256168        1.11994973
 C            3.24603734        0.04441100        0.55789845
 C            2.93215701        1.37510887        0.26841449
 C            3.18031229       -2.28834062       -0.03947074
 C            3.00823275       -0.95484869       -0.39461623
 C            1.54422060       -3.93143961        0.24005348
 C            2.42249809       -3.30275421       -0.74052001
 C           -0.69427451       -2.94185179        0.44083852
 C            0.19465428       -3.77398979       -0.24570749
 C           -2.38248751       -1.21989696        0.18075837
 C           -1.76968101       -2.39689444       -0.27329297
 C           -3.31081594       -0.53362863       -0.62295973
 C           -3.16724787        1.35868429        0.92413163
 C           -3.77028300        0.71656612       -0.22128964
 C           -1.38799128        3.00702622        0.76230536
 C           -2.71639839        2.67010403        0.50716387
 C            0.84796026        3.21485043       -0.15295983
 C           -0.53488276        3.36816245       -0.29718782
 C            2.59569298        1.73002702       -1.03244251
 C            1.60104885        2.76975756       -1.23905011
 C            2.37963390       -0.63610076       -1.60345027
 C            2.34848618        0.68772420       -2.01227031
 C            1.58648598       -2.90463546       -1.85451655
 C            0.33191645       -3.60969724       -1.67702546
 C            1.54569958       -1.56465429       -2.23805221
 C           -1.93976890       -2.80093596       -1.59930731
 C           -0.76397973       -3.14777563       -2.36987891
 C           -3.45522811       -0.86642819       -1.96592415
 C           -2.76313070       -2.01686122       -2.49157057
 C           -3.32634958        0.17838772       -2.96745169
 C           -3.98823829        1.74870006       -1.22666693
 C           -3.31621170        2.95832044       -0.77742736
 C           -3.58134823        1.49026701       -2.59668509
 C           -1.04155940        3.55763312       -1.58454253
 C           -2.46217366        3.42179902       -1.84411903
 C           -2.61890022        2.51446571       -2.97070516
 C            0.94980164        2.50181179       -2.50939406
 C            1.27296976        1.13485838       -2.88019884
 C           -0.33981066        2.96090508       -2.70684419
 C           -1.28822423        2.10696443       -3.39716902
 C            0.45152699       -1.12347094       -2.99422690
 C           -0.56823703       -2.03212983       -3.27285532
 C           -1.89486304       -1.54269111       -3.56501547
 C           -2.09888096       -0.11738684       -3.68440376
 C            0.25073530        0.24750061       -3.20693512
 C           -1.01608305        0.74776958       -3.55140875
