   70
C70 / DATE: 7/ 1/2024 / Origin: Program Fullerene / C70 from database
 C            1.34245978        0.03577628        4.94314968
 C            0.57683207       -1.17308338        4.69779931
 C            1.46104595       -2.12893145        4.07394118
 C            2.60442083       -0.09195302        4.23302588
 C            2.69102503       -1.43730328        3.71526887
 C            2.68908085        1.00329596        3.29324550
 C            0.61502205        1.14835607        4.35486352
 C            1.50267626        1.83085032        3.44601988
 C           -0.63520490       -0.79974456        3.99133157
 C           -0.62360314        0.64316426        3.81894111
 C           -1.09007939       -1.58084316        2.92678699
 C            0.98954044       -2.80892206        2.88846838
 C           -0.34276584       -2.69117907        2.50076830
 C            2.90023801       -1.61990608        2.28725691
 C            2.00917417       -2.67843724        1.86107555
 C            3.15041462        0.77596364        1.99996505
 C            3.06425786       -0.51586963        1.45490943
 C            3.04579222        1.85826251        1.13861493
 C            0.97790002        2.41007099        2.29344753
 C            1.90460037        2.74325988        1.31587084
 C           -1.08396575        1.14992729        2.61173032
 C           -0.33063990        2.08903795        1.89291751
 C           -1.99672535       -0.99493520        2.03862900
 C           -2.02382306        0.39990400        1.92366887
 C           -2.58090497       -1.77957679        1.04417307
 C           -0.66483614       -3.27596541        1.28209047
 C           -1.88957828       -2.89737927        0.60364480
 C            1.59594721       -2.72982553        0.53360059
 C            0.38365365       -3.36046257        0.27738948
 C            2.81443597       -0.67383537        0.08698427
 C            2.04638837       -1.75885415       -0.36688032
 C            3.21478126        1.65592440       -0.28292520
 C            3.14014195        0.36369106       -0.78765302
 C            1.45031019        3.13987061        0.00198260
 C            2.47101268        2.71794228       -0.93899473
 C           -0.77876480        2.44982210        0.61105967
 C            0.11509700        2.97368514       -0.33588122
 C           -2.68289667        0.98802977        0.85575185
 C           -2.05696753        2.05531596        0.20073397
 C           -3.50509641       -1.19784980        0.18262938
 C           -3.66708260        0.23967056        0.22151388
 C           -3.49314101       -1.57891190       -1.22212779
 C           -1.66927515       -3.07077094       -0.82326018
 C           -0.23542080       -3.21686401       -1.02372024
 C           -2.40735634       -2.29851946       -1.71698358
 C            1.57054362       -1.77199000       -1.68355347
 C            0.38833229       -2.45161523       -1.99688343
 C            2.94338694        0.19782334       -2.15453573
 C            2.14255968       -0.91808490       -2.62061379
 C            2.12064804        2.55314729       -2.26795869
 C            2.58669099        1.36045501       -2.95181148
 C           -0.23721197        3.01348674       -1.68890937
 C            0.73616558        2.76938508       -2.65945472
 C           -2.53155694        2.51063303       -1.02663633
 C           -1.56964823        2.86031458       -2.04990604
 C           -4.19229111        0.65578423       -1.06161255
 C           -4.03328668       -0.46212960       -1.97983993
 C           -3.63159902        1.83076061       -1.68562631
 C           -1.88261777        2.06434249       -3.22741148
 C           -3.31539396        0.01719165       -3.14455557
 C           -3.18297982        1.45531540       -3.01719652
 C           -1.81957849       -1.92855466       -2.92916646
 C           -0.37734737       -2.04789772       -3.08579217
 C           -2.23965010       -0.71646315       -3.62259521
 C            1.35676802       -0.46396302       -3.75911733
 C            1.56602762        0.96067517       -3.90296840
 C            0.42964522        1.85023350       -3.74441291
 C           -0.86080620        1.33609982       -3.83100469
 C            0.07459942       -0.95771494       -3.92929764
 C           -1.03952054       -0.02913244       -4.08396367
