   70
C70 / DATE: 7/ 1/2024 / Origin: Program Fullerene / C70 from database
 C            1.24941442        0.03872048        4.38159107
 C            2.56244615       -0.25501354        3.86154895
 C            2.57039863       -1.65048861        3.46306889
 C            0.40519113       -1.12818099        4.15613899
 C            1.19292351       -2.11393717        3.45796824
 C           -0.82116853       -0.66880399        3.54741962
 C            0.54086929        1.18599910        3.85633086
 C           -0.83729274        0.77508684        3.66164176
 C            1.13189390        2.01002106        2.89791586
 C            3.05114132        0.52136130        2.74102484
 C            2.35300413        1.64679226        2.30131943
 C            3.33318555       -1.75953785        2.23103304
 C            3.57382981       -0.40823929        1.74881630
 C            2.94520629       -2.72498618        1.31964703
 C            0.70320569       -2.69576224        2.29285870
 C            1.64085530       -3.34347580        1.49665924
 C           -1.25923556       -1.23702528        2.35647128
 C           -0.48941076       -2.21870529        1.70977125
 C           -2.23347059       -0.54752818        1.63636458
 C           -1.61717227        1.48822839        2.76455254
 C           -2.51923290        0.78482531        1.97159292
 C            0.30008528        2.93829539        2.27251700
 C           -1.13702231        2.71116850        2.29868036
 C            0.63376286        3.46428945        0.95995458
 C            2.68976485        2.14492223        1.04467239
 C            1.80858912        3.06740848        0.35344438
 C            3.41462592       -0.10149025        0.39531781
 C            3.25171359        1.23384530        0.05826380
 C            3.05820208       -2.42873118       -0.09338523
 C            3.02987283       -1.09820562       -0.51188728
 C            1.24385205       -3.86751390        0.21492856
 C            2.21923654       -3.39722726       -0.75905614
 C           -0.88004596       -2.66148918        0.43241509
 C           -0.06739078       -3.53015969       -0.28885894
 C           -2.69722003       -1.08258123        0.43713607
 C           -1.90012858       -1.99644986       -0.25290648
 C           -3.80582485       -0.51487458       -0.18051639
 C           -3.37774346        1.52513026        1.16894758
 C           -4.16300105        0.84574447        0.15941797
 C           -1.69552578        3.28107408        1.08095747
 C           -0.58678334        3.51051497        0.17164353
 C           -2.86862269        2.74808572        0.57323099
 C           -0.60905004        2.94361417       -1.10469388
 C            1.79275297        2.69854953       -1.05062387
 C            2.71218624        1.58635601       -1.23470760
 C            0.59853777        2.70408243       -1.76948790
 C            2.41523284       -0.75558576       -1.73524781
 C            2.37329127        0.59170166       -2.14037559
 C            1.48698883       -2.97487820       -1.92364133
 C            0.08872737       -3.30786492       -1.71026403
 C            1.77857994       -1.75103643       -2.50740758
 C           -1.97008149       -2.08827647       -1.65422456
 C           -0.86347740       -2.54497093       -2.37085936
 C           -3.94879840       -0.63683267       -1.61415108
 C           -2.94159084       -1.37549695       -2.34882100
 C           -4.06688850        1.63530253       -1.05804624
 C           -2.98375103        2.57794252       -0.86139311
 C           -1.82070669        2.46560094       -1.62763617
 C           -3.98505927        0.71190230       -2.16449897
 C           -2.52307824       -0.53511638       -3.45615263
 C           -1.83872480        1.73550609       -2.82447710
 C           -2.86672458        0.82303550       -3.07730247
 C            0.58960897        2.03887899       -2.98781936
 C            1.56423136        0.97853975       -3.20442078
 C           -0.66928863        1.61492530       -3.56587800
 C            0.93843351       -1.38399765       -3.55112543
 C           -0.44582575       -1.82787351       -3.49317251
 C           -1.28221946       -0.76519208       -4.03035011
 C            0.95169655       -0.02663763       -4.03378671
 C           -0.42198057        0.37671541       -4.28808734
