   70
C70 / DATE: 7/ 1/2024 / Origin: Program Fullerene / C70 from database
 C            1.10616090        0.01150924        4.63295805
 C            2.32954240       -0.38115799        3.97093335
 C            2.21355765       -1.79198950        3.63546345
 C            0.26786422       -1.17380884        4.73168853
 C            0.82376571       -2.16081810        3.82978500
 C           -1.09713978       -0.75165404        4.53554274
 C            0.29637623        1.05211737        4.03062622
 C           -1.07904222        0.68285080        4.28347376
 C            0.63188713        1.54858705        2.77097214
 C            2.71303189        0.31130531        2.75931365
 C            1.90682386        1.32439350        2.23639368
 C            2.80378809       -1.98429450        2.32200710
 C            3.23689473       -0.68296274        1.84412776
 C            2.16969493       -2.83569106        1.43393813
 C            0.08924398       -2.60559337        2.72738461
 C            0.78584380       -3.21404887        1.68769162
 C           -1.86020888       -1.35073144        3.46062127
 C           -1.22232568       -2.15322030        2.50909986
 C           -2.06180058        0.94189219        3.25089400
 C           -2.75618708       -0.30836785        3.00392014
 C           -0.37060355        2.08187357        1.95445377
 C           -1.71287319        1.72334937        2.15515897
 C           -0.00898288        2.75874196        0.78910594
 C            2.16753380        1.73762396        0.92912034
 C            1.29850285        2.64153064        0.31424115
 C            3.17587333       -0.38619683        0.48909617
 C            3.01386918        0.94737696        0.14250520
 C            2.29849950       -2.58306565        0.01031554
 C            2.78559974       -1.36118004       -0.43666098
 C            0.14380904       -3.40617022        0.40488786
 C            1.12931280       -3.13877242       -0.63411343
 C           -1.82747490       -2.31047767        1.25219537
 C           -1.16350325       -2.97930320        0.21691992
 C           -3.37647800       -0.47564885        1.77919649
 C           -3.02015217       -1.63494362        0.98342582
 C           -2.59325159        1.74805198        1.07480766
 C           -3.43033163        0.65375105        0.86352742
 C           -1.01562415        3.21884483       -0.05672737
 C           -2.31833349        2.58882110        0.00668811
 C           -0.72897920        3.48874454       -1.45570850
 C            1.63678345        3.16652353       -0.93234980
 C            0.58973532        3.50453863       -1.88112073
 C            3.24043015        1.28994986       -1.17923901
 C            2.71264504        2.54230751       -1.67439834
 C            2.50234280       -0.96541452       -1.74825469
 C            2.99543861        0.26778053       -2.17837537
 C            0.69889733       -2.59248103       -1.83671544
 C            1.45189023       -1.58148868       -2.44651408
 C           -1.62130842       -2.86521839       -1.09571601
 C           -0.64538937       -2.73824692       -2.16739699
 C           -3.38177823       -1.32652062       -0.38761373
 C           -3.56265244        0.11321319       -0.48087207
 C           -2.73750713       -1.98997732       -1.41230104
 C           -2.65161304        2.14898569       -1.33850208
 C           -1.74289314        2.81485223       -2.25433029
 C           -3.00956658        0.81836505       -1.54786432
 C           -1.38783405        2.17873737       -3.43428061
 C            0.94404867        2.92694265       -3.17005210
 C            2.26108300        2.32700902       -3.03790534
 C            2.43907571        0.91682376       -3.35216407
 C           -0.02213634        2.27435276       -3.92767898
 C            1.01011297       -1.04821914       -3.65936619
 C            1.46916696        0.26096046       -4.09287974
 C            0.31157736        1.00761051       -4.55977857
 C           -1.23069287       -1.90668502       -3.20264595
 C           -2.40028335       -1.26319103       -2.62324402
 C           -2.51200714        0.12798488       -2.65922811
 C           -1.85969152        0.82570528       -3.67534077
 C           -0.39403551       -1.16618974       -4.02150534
 C           -0.84802199        0.13972117       -4.46163677
