   70
C70 / DATE: 7/ 1/2024 / Origin: Program Fullerene / C70 from database
 C            1.35330279       -0.03646803        5.04611582
 C            0.58074143       -1.22783440        4.73157092
 C            1.46686005       -2.16134814        4.08530248
 C            2.60864908       -0.12580997        4.32175825
 C            2.72876508       -1.47454491        3.82637604
 C            2.64496431        0.96112062        3.36628452
 C            0.62615932        1.10995020        4.52836255
 C            1.47150109        1.79506144        3.58132044
 C           -0.60942191       -0.80738015        4.02271185
 C           -0.64914883        0.64247858        4.05445739
 C           -1.00143937       -1.44589670        2.83996362
 C            1.04879432       -2.76078366        2.83291946
 C           -0.15593514       -2.38312626        2.22459658
 C            3.03423814       -1.67269592        2.42243987
 C            2.24445077       -2.81772515        2.01871094
 C            3.05727721        0.73364054        2.05381210
 C            3.11887836       -0.57860009        1.55200731
 C            2.86146517        1.78388055        1.16817478
 C            0.88687857        2.39232701        2.46635603
 C            1.73724639        2.67877858        1.40752524
 C           -1.21775930        1.26597884        2.96069651
 C           -0.47824154        2.18639360        2.20037543
 C           -1.96591037       -0.80165632        2.06381191
 C           -2.20503326        0.55475285        2.30985821
 C           -2.32012506       -1.34487052        0.82910457
 C           -0.32757127       -2.68543218        0.86479685
 C           -1.39111179       -2.12651563        0.14423102
 C            2.08591920       -3.04409535        0.67067134
 C            0.73962388       -3.24630836        0.17277636
 C            2.98002938       -0.81966336        0.17446273
 C            2.70937999       -2.11516464       -0.25214416
 C            2.92392406        1.54331846       -0.25539464
 C            2.82503209        0.23960291       -0.72561885
 C            1.18474341        3.04229162        0.12004127
 C            2.13326550        2.58633317       -0.88002954
 C           -1.02363870        2.61351199        0.97479739
 C           -0.17878803        2.88275217       -0.10772410
 C           -3.00557392        1.26896149        1.44444769
 C           -2.37532232        2.36583891        0.73273457
 C           -3.40147141       -0.79949660        0.14945125
 C           -3.82800889        0.53590052        0.51262133
 C           -3.45976372       -0.89343160       -1.29452064
 C           -1.41370705       -2.18810410       -1.26622050
 C           -2.48129693       -1.60995573       -1.97953187
 C            0.82337602       -3.05944676       -1.25290822
 C            2.04716998       -2.31590633       -1.52062266
 C           -0.30859246       -2.70565157       -1.96373870
 C            2.33067986        0.01605338       -2.02219770
 C            1.98906153       -1.27787536       -2.44083406
 C            1.68245197        2.38392504       -2.16733741
 C            1.97584772        1.11594040       -2.80904203
 C           -0.63320640        2.72903839       -1.42600990
 C            0.29652067        2.68678722       -2.46574785
 C           -2.87233455        2.34177058       -0.63056570
 C           -3.90825555        1.32504978       -0.69750744
 C           -3.88828597        0.40467533       -1.81185951
 C           -1.97833184        2.44952140       -1.68959517
 C           -3.33389960        0.85226023       -2.99848571
 C           -2.35613292        1.93398534       -2.93576316
 C           -2.38211335       -1.41199996       -3.35928914
 C           -2.82014683       -0.14390246       -3.91316425
 C           -0.07271740       -2.28315523       -3.26302842
 C            1.09424644       -1.44916677       -3.49779126
 C           -1.16367342       -1.76787259       -4.04692590
 C            1.00867214        0.96212784       -3.88156249
 C           -0.02530230        1.97626259       -3.68731464
 C           -1.35407913        1.68571354       -3.95989632
 C           -1.69618919        0.44060839       -4.62383254
 C            0.66688371       -0.31557876       -4.29504015
 C           -0.68446991       -0.58912994       -4.75439998
