   70
C70 / DATE: 7/ 1/2024 / Origin: Program Fullerene / C70 from database
 C            1.58154121        0.05210180        4.61166095
 C            0.77577804       -1.14952462        4.49616839
 C            1.42136487       -2.03392343        3.54310400
 C            2.66522849       -0.04727129        3.64966549
 C            2.63289390       -1.37381035        3.07269129
 C            2.57506882        1.08163734        2.74867463
 C            0.75015612        1.17676065        4.22353256
 C            1.40494953        1.85572644        3.12747208
 C           -0.59202715       -0.74544603        4.24714944
 C           -0.59762473        0.69168703        4.01118520
 C           -1.37590923       -1.55169406        3.43773339
 C            0.64258133       -2.74496114        2.62774933
 C           -0.74755632       -2.60111941        2.64102310
 C            1.26000472       -3.23121289        1.47758625
 C            2.98815759       -1.52633181        1.73805597
 C            2.54634358       -2.67646988        1.09561079
 C            2.81519098        0.86624727        1.39309714
 C            3.27305249       -0.38753554        0.97169100
 C            2.23368483        1.73391528        0.46135851
 C            0.62430880        2.37695351        2.10897265
 C            1.23995123        2.61700511        0.89017295
 C           -1.32623842        1.19607391        2.93535268
 C           -0.76372939        2.19833956        2.13103834
 C           -2.39418060       -0.93026887        2.61238833
 C           -2.40276410        0.45293682        2.45174399
 C           -1.49746844       -2.71989033        1.39608731
 C           -2.59195275       -1.77092343        1.44412710
 C            0.48394673       -3.40477723        0.25848732
 C           -0.81555712       -2.91714016        0.20147765
 C            2.67147571       -2.78633749       -0.34367822
 C            1.37568158       -3.20105008       -0.86713929
 C            3.63989301       -0.54447533       -0.36249336
 C            3.39628783       -1.81871081       -1.02121695
 C            2.42054116        1.50434693       -0.90406404
 C            3.29825959        0.50646128       -1.30514161
 C            1.53886825        2.06556922       -1.83124160
 C            0.55642053        3.38912072       -0.03481420
 C            0.80137996        3.17689522       -1.44747020
 C           -1.52160021        2.76049292        1.09808836
 C           -0.87445837        3.55052805        0.14658721
 C           -3.17607045        0.97892580        1.42615496
 C           -2.77983429        2.23211961        0.81263483
 C           -3.02490127       -1.17475874        0.26961670
 C           -3.60266885        0.08969204        0.35847008
 C           -1.27859174       -2.30782940       -0.97039617
 C           -2.48837104       -1.59394240       -0.94763387
 C            0.88236352       -2.61278363       -2.02538663
 C           -0.48174435       -2.33354543       -2.12726021
 C            3.05760747       -1.54562609       -2.40431216
 C            3.11272115       -0.10665641       -2.60344237
 C            1.77339367       -1.99724282       -2.90475306
 C            1.17071854        1.34799230       -2.97902510
 C            1.95191525        0.27044741       -3.39018224
 C            1.28967963       -0.95809333       -3.79433700
 C           -0.11988659        1.47759068       -3.50754442
 C           -0.41979974        3.49732060       -2.15694316
 C           -1.46230822        3.73203237       -1.16920441
 C           -0.92529315        2.54616597       -3.12332701
 C           -3.28645250        2.22585389       -0.55555757
 C           -3.78667747        0.88855644       -0.84087176
 C           -2.61843632        2.94046606       -1.54097980
 C           -2.33064481        2.31130766       -2.82070445
 C           -3.00106523       -1.04106199       -2.11707334
 C           -3.54581189        0.30571028       -2.07808912
 C           -2.89285756        1.07650457       -3.12510778
 C           -0.95004894       -1.77679662       -3.31418870
 C           -0.06475151       -0.91168735       -4.07339289
 C           -0.71392225        0.38425758       -4.13561492
 C           -2.26786610       -1.18026566       -3.35392786
 C           -2.13233899        0.14542172       -3.94009450
