   70
C70 / DATE: 7/ 1/2024 / Origin: Program Fullerene / C70 from database
 C            1.18469740       -0.00078071        4.32999872
 C            2.50581216       -0.34093331        3.85850790
 C            2.48465282       -1.74441197        3.47722013
 C            0.35391803       -1.18849638        4.20038088
 C            1.09167831       -2.15083381        3.41714649
 C           -0.93187123       -0.75903607        3.71153438
 C            0.47358160        1.08533315        3.68601969
 C           -0.91720334        0.69270045        3.63852067
 C            1.01280806        1.71498822        2.57054575
 C            3.05305763        0.39476057        2.73865747
 C            2.29052853        1.37089330        2.09403018
 C            3.29989587       -1.88713802        2.28532462
 C            3.79204444       -0.56113255        1.93573465
 C            2.84847040       -2.73032885        1.27907731
 C            0.56889965       -2.59367677        2.20101498
 C            1.45033496       -3.14484686        1.27623887
 C           -1.52669614       -1.44966233        2.66555431
 C           -0.71342343       -2.18781484        1.78875162
 C           -2.70399393       -0.89528589        2.18868113
 C           -1.75544917        1.29461030        2.70618131
 C           -2.85277331        0.54821768        2.28140675
 C            0.15507565        2.46327843        1.76626268
 C           -1.23269879        2.27169874        1.85064537
 C            0.69881348        3.20564720        0.72596338
 C            2.70363686        1.81026797        0.83189412
 C            1.97304714        2.79360448        0.17510641
 C            4.04264752       -0.25163200        0.60618391
 C            3.56486155        1.01561157        0.07595630
 C            3.23275605       -2.46857844       -0.09658093
 C            3.84181858       -1.26098714       -0.42252587
 C            1.03971862       -3.30705168       -0.10178663
 C            2.18170302       -2.99842884       -0.94773211
 C           -1.12526644       -2.39757652        0.45768050
 C           -0.22436675       -2.89055061       -0.49547889
 C           -3.22535705       -1.30741626        0.90780266
 C           -2.42510332       -2.06262365        0.06111473
 C           -3.64140512        0.99141659        1.14620780
 C           -3.99055236       -0.18955247        0.37224507
 C           -2.07429660        2.85698098        0.90281785
 C           -3.28736863        2.16523140        0.49711086
 C           -0.13994830        3.64352870       -0.37509929
 C           -1.51431898        3.49439740       -0.27643099
 C            1.81671222        2.70448768       -1.26874397
 C            0.54169254        3.30476301       -1.61540711
 C            3.29694657        0.83509344       -1.34250183
 C            3.47357755       -0.57340068       -1.65131395
 C            2.25964466        1.55912615       -1.92772705
 C            1.95502801       -2.43056996       -2.19337588
 C            2.61115745       -1.18054767       -2.54984995
 C           -0.46696168       -2.69265584       -1.85605586
 C            0.59415874       -2.36790515       -2.69484525
 C           -2.77776391       -2.14986896       -1.28272157
 C           -1.74309215       -2.35243400       -2.27460400
 C           -4.16705119       -0.08949924       -1.00079324
 C           -3.72539916       -1.19270658       -1.83289225
 C           -3.39431452        2.25213521       -0.95139976
 C           -2.28207986        3.05656067       -1.43242042
 C           -3.82367996        1.14961779       -1.68461939
 C           -0.17737464        2.79484883       -2.68491939
 C           -1.62684843        2.70379198       -2.60747849
 C            1.47092777        0.97492015       -2.92819583
 C            1.64934248       -0.36302446       -3.26838755
 C            0.48210015       -1.18760231       -3.53405573
 C            0.31311101        1.61126564       -3.36930145
 C           -1.88951535       -1.31661930       -3.28720197
 C           -3.14966223       -0.63888345       -3.04757586
 C           -3.15998410        0.80542449       -2.93350067
 C           -2.03991206        1.51827624       -3.34160190
 C           -0.76586584       -0.58582929       -3.67155522
 C           -0.83725954        0.80684443       -3.75883917
