   70
C70 / DATE: 7/ 1/2024 / Origin: Program Fullerene / C70 from database
 C            1.58613024        0.01379095        4.71413710
 C            0.77089885       -1.17114589        4.54478635
 C            1.33462292       -1.96511509        3.46476617
 C            2.64743611       -0.03595448        3.72449189
 C            2.47056017       -1.22974935        2.93227192
 C            2.65593894        1.23062431        3.03408111
 C            0.74852896        1.15908058        4.39947535
 C            1.46391605        1.95966213        3.44235354
 C           -0.60381183       -0.73159464        4.41271635
 C           -0.55719329        0.66833444        4.02084784
 C           -1.46282614       -1.56114781        3.72329936
 C            0.44870120       -2.58754445        2.58177036
 C           -0.88630481       -2.66800399        2.97453809
 C            0.77843388       -2.65666120        1.21685071
 C            2.60569846       -1.14369631        1.55680038
 C            2.00269113       -2.13150159        0.79199587
 C            2.98932728        1.26369021        1.68137948
 C            2.96647064        0.06820635        0.94402247
 C            2.70528299        2.45490665        1.02135686
 C            0.75541609        2.60394416        2.44278649
 C            1.55293642        3.20948546        1.48724195
 C           -1.09962722        1.05612803        2.78889911
 C           -0.49030503        2.07632444        2.04192566
 C           -2.41871748       -0.95241223        2.82581441
 C           -2.08590327        0.25358803        2.20230329
 C           -1.88811342       -3.07319533        2.01580726
 C           -2.91982014       -2.04527965        2.02704864
 C           -0.18899272       -3.00682843        0.25875958
 C           -1.49319817       -3.26841734        0.63832757
 C            0.07067895       -2.79450301       -1.09318257
 C            2.37180826       -2.23773852       -0.53907357
 C            1.39810202       -2.72828138       -1.49080800
 C            3.02232789        0.11196182       -0.45547652
 C            3.03091941       -1.09707190       -1.14588963
 C            2.68659840        2.48777585       -0.42672829
 C            2.67513577        1.29013528       -1.12873817
 C            0.92676867        3.82211346        0.34863260
 C            1.75498754        3.52632998       -0.80817335
 C           -1.01478424        2.40548595        0.78243777
 C           -0.42426988        3.42079596        0.03444744
 C           -2.49944855        0.49163134        0.88034124
 C           -1.91692582        1.54214070        0.15306467
 C           -3.26408125       -1.77322500        0.65915711
 C           -2.55759853       -2.72955087       -0.17633670
 C           -3.30626065       -0.45654458        0.22576322
 C           -0.96031036       -2.35638989       -1.94877257
 C           -2.28911690       -2.33719312       -1.48315785
 C           -0.65175087       -1.79226016       -3.20475942
 C            1.73582036       -2.17060324       -2.77812573
 C            2.71735283       -1.11646421       -2.55945226
 C            0.67660400       -1.62080702       -3.58914760
 C            2.07036871        1.23804156       -2.39642987
 C            2.20740753        0.09118309       -3.17348267
 C            1.11923243       -0.31127276       -4.04399117
 C            0.86244144        3.26415148       -1.90993765
 C           -0.50090856        3.36817105       -1.40861997
 C            1.15455574        2.22749199       -2.78872592
 C           -2.25636436        1.74870144       -1.19538870
 C           -1.46418803        2.57306563       -2.00654791
 C           -3.57165280       -0.30180096       -1.12457905
 C           -3.16262763       -1.38857602       -2.00035851
 C           -3.21048414        0.92750958       -1.78656268
 C           -1.61343933       -1.05730556       -3.89822421
 C           -2.90992106       -0.83224739       -3.30290383
 C           -3.10841726        0.60533840       -3.20085668
 C            0.16334325        0.62807879       -4.39271439
 C            0.15570096        1.90979855       -3.70605597
 C           -1.21567554        2.20024629       -3.32638474
 C           -1.21787015        0.19274196       -4.52269821
 C           -2.07223511        1.23942747       -3.98241482
