   70
C70 / DATE: 7/ 1/2024 / Origin: Program Fullerene / C70 from database
 C            1.12737608        0.01284054        4.33755054
 C            2.46073815       -0.35106058        3.91949819
 C            2.44490757       -1.76608194        3.58614381
 C            0.30082172       -1.18177587        4.24497865
 C            1.05504917       -2.17898565        3.52273814
 C           -0.97422655       -0.77689045        3.71084391
 C            0.43511095        1.06661774        3.61856249
 C           -0.95515459        0.66961015        3.57081035
 C            1.00680454        1.62303102        2.47636522
 C            3.04452615        0.34818603        2.79640112
 C            2.36156759        1.39837323        2.18721908
 C            3.27234686       -1.95624839        2.41067644
 C            3.69956029       -0.63800618        1.95265721
 C            2.86425688       -2.89055526        1.47407571
 C            0.55615950       -2.68241635        2.31986602
 C            1.45714428       -3.27655657        1.43575680
 C           -1.54969542       -1.51590820        2.68623172
 C           -0.72072259       -2.30005485        1.86589396
 C           -2.71624654       -0.98273087        2.15755926
 C           -1.77899395        1.22505264        2.60293254
 C           -2.87353329        0.46199394        2.20546839
 C            0.15931374        2.18063588        1.50819315
 C           -1.23074813        2.13130956        1.69225689
 C            0.69994913        2.79345633        0.37031029
 C            2.88216892        1.86371380        0.99041244
 C            2.06395323        2.68538439        0.12328350
 C            3.82445691       -0.37010107        0.58647431
 C            3.63102186        0.93870390        0.14948890
 C            3.31772292       -2.73030886        0.10921155
 C            3.72481146       -1.41099359       -0.33852512
 C            1.08610875       -3.45667346        0.04802253
 C            2.25695051       -3.18892395       -0.76753509
 C           -1.09325147       -2.55930418        0.53398704
 C           -0.13351870       -2.97253445       -0.39126437
 C           -3.19469320       -1.42876312        0.86980079
 C           -2.35634246       -2.18519433        0.06073584
 C           -3.65647958        0.86796055        1.05361310
 C           -3.96732727       -0.33384069        0.29551523
 C           -2.07206047        2.70973759        0.74604755
 C           -3.31136624        2.03555942        0.38814446
 C           -0.13507172        3.23048572       -0.66173762
 C           -1.50976866        3.27791375       -0.46275801
 C            0.37025222        3.33117298       -1.95820997
 C            2.51950090        2.45228455       -1.23510448
 C            3.22485866        1.18188054       -1.22358763
 C            1.64304134        2.71127281       -2.27252302
 C            3.08960634       -1.17225616       -1.62879274
 C            2.13087636       -2.23555626       -1.85730307
 C            2.74302561        0.12294142       -1.98949326
 C           -0.23289146       -2.53843179       -1.70847107
 C            0.85604419       -1.89581447       -2.29155405
 C           -2.61109624       -2.23957261       -1.31032585
 C           -1.49214845       -2.31735324       -2.23071446
 C           -4.12287260       -0.26135006       -1.08201473
 C           -3.59286849       -1.33946060       -1.89344224
 C           -3.47038512        2.11773512       -1.05447903
 C           -2.41572246        2.97740169       -1.56516753
 C           -3.85926699        0.99201997       -1.77608942
 C           -0.50313777        3.06012182       -3.08549658
 C           -1.89847942        2.75096771       -2.83423149
 C            1.35159925        1.63744638       -3.20336661
 C            1.63821132        0.33081844       -2.81928386
 C            0.65602933       -0.66799393       -2.92695708
 C            0.07790098        1.94325594       -3.81790508
 C           -1.65812527       -1.27271934       -3.22356344
 C           -3.01054947       -0.75809995       -3.09181994
 C           -3.20854840        0.67899418       -3.04118525
 C           -2.19465238        1.50146204       -3.51689233
 C           -0.61202464       -0.38153117       -3.45444464
 C           -0.92180370        0.90370667       -3.89348806
