   70
C70 / DATE: 7/ 1/2024 / Origin: Program Fullerene / C70 from database
 C            1.38323563       -0.13252534        4.32403687
 C            2.61126454       -0.51220878        3.64499489
 C            2.49236729       -1.90841115        3.26833436
 C            0.51547136       -1.29741782        4.37328053
 C            1.21322310       -2.39974229        3.75833720
 C           -0.77114063       -0.91176229        3.83195528
 C            0.60777823        0.98514856        3.80356872
 C           -0.74843635        0.52430234        3.59267520
 C            1.18152759        1.82225092        2.85947012
 C            3.15622863        0.37529175        2.72959788
 C            2.53731002        1.67684745        2.57378981
 C            3.45935718       -0.08924421        1.38267969
 C            2.59840315       -2.26748550        1.86225303
 C            2.90481333       -1.28104384        0.92974891
 C            0.56700584       -3.09523330        2.66561928
 C            1.52607391       -3.19877637        1.57780685
 C           -1.42772494       -1.73012548        2.91210476
 C           -0.76878838       -2.84001239        2.35107042
 C           -2.52496160       -1.17133275        2.26128261
 C           -1.49361338        1.03123091        2.53128798
 C           -2.57678123        0.27487624        2.10851173
 C            0.36010844        2.47108033        1.93625357
 C           -0.91188565        1.95445603        1.64958285
 C            0.94169675        3.39594775        1.07734872
 C            3.05385094        2.21929417        1.33596642
 C            3.45094362        1.07694063        0.52040373
 C            2.34840447        3.24290965        0.72959495
 C            2.96104081        0.97010024       -0.77799353
 C            2.31963904       -1.33781936       -0.33902292
 C            2.34234199       -0.21601737       -1.18420256
 C            1.03585758       -3.28881483        0.28364078
 C            1.59364462       -2.47787291       -0.70689086
 C           -1.24110169       -3.40320239        1.16584087
 C           -0.27433219       -3.73066179        0.13082237
 C           -3.05278913       -1.76949209        1.04897486
 C           -2.42231578       -2.87153901        0.51018544
 C           -3.20159492        0.56704342        0.84200090
 C           -3.47944446       -0.69443374        0.17224430
 C           -1.56242832        2.29034143        0.44419495
 C           -2.75194155        1.63335048        0.08053686
 C            0.23176097        3.81266144       -0.11320715
 C           -1.00608904        3.25600875       -0.41334013
 C            2.44977654        3.35858488       -0.70923725
 C            2.69613257        2.14896797       -1.47344708
 C            1.20864288        3.93136065       -1.18320415
 C            1.75610670        2.13710676       -2.58209449
 C            0.90353229        3.31188540       -2.45730299
 C            1.67444567       -0.25509180       -2.40987253
 C            1.19502344        0.92792738       -2.97923216
 C            1.13305152       -2.60493671       -2.01437151
 C            1.25961540       -1.47774161       -2.91814227
 C           -0.92857678       -3.59514198       -1.15511482
 C           -2.20867404       -2.93767086       -0.92631457
 C           -0.16548667       -3.22106603       -2.24994341
 C           -3.27989600       -0.77831847       -1.20566040
 C           -2.59544234       -1.87612601       -1.74756714
 C           -3.18913347        1.66758186       -1.23862794
 C           -3.38886016        0.40578515       -1.93608815
 C           -1.42299474        3.32664029       -1.74265705
 C           -0.43114900        3.18980692       -2.79911753
 C           -2.59930772        2.60232839       -2.16264853
 C           -0.02281775        0.93212087       -3.67128747
 C           -2.77419228        0.52138347       -3.24821228
 C           -0.83993795        2.05780484       -3.60623186
 C           -2.26090672        1.87420034       -3.37572363
 C            0.12855340       -1.50728581       -3.82185471
 C           -0.81453543       -2.49171223       -3.32039674
 C           -2.05968788       -1.80113832       -3.03388245
 C           -0.60165082       -0.27650096       -4.04837072
 C           -1.99961047       -0.52566187       -3.71873668
