   70
C70 / DATE: 7/ 1/2024 / Origin: Program Fullerene / C70 from database
 C            1.17291083       -0.05474161        4.95228511
 C            2.48829789       -0.33836585        4.42442062
 C            2.41045175       -1.62935303        3.75331045
 C            0.35901000       -1.24272357        4.74270524
 C            1.01458889       -2.01476930        3.71171054
 C           -0.99084317       -0.79298893        4.50555593
 C            0.42268723        1.05630270        4.39659497
 C           -0.96083694        0.66241090        4.51602312
 C            0.85541576        1.66838720        3.21256281
 C            3.06407949        0.60429631        3.48697005
 C            2.20220581        1.59617117        2.86085754
 C            3.12210772       -1.51191935        2.49901578
 C            3.66832665       -0.17258171        2.42271622
 C            2.54315395       -2.01541243        1.34445134
 C            0.40757645       -2.17432159        2.46412346
 C            1.21252114       -2.45445260        1.36460546
 C           -1.64947269       -1.18334914        3.27289811
 C           -0.91660587       -1.76835721        2.24610971
 C           -1.87187017        1.10313160        3.49465613
 C           -2.51279982       -0.07763567        2.94159011
 C           -0.08498822        2.10855663        2.26418987
 C           -1.44995500        2.06837188        2.59139224
 C            0.31249105        2.30504988        0.92442839
 C            2.57205345        1.66085000        1.46056957
 C            3.47491189        0.55554795        1.18018520
 C            1.60161479        1.96478227        0.51688148
 C            3.04600697       -1.55048574        0.13699347
 C            3.25705193       -0.17613868        0.01541223
 C            2.68880985       -2.26394521       -0.99455063
 C            0.60696803       -2.75271895        0.14691232
 C            1.46103040       -3.03001047       -0.91374252
 C           -1.38913095       -1.64386330        0.93296278
 C           -0.67058105       -2.23319140       -0.11159990
 C           -2.99250063        0.04302892        1.64784317
 C           -2.48559272       -0.80918156        0.65049213
 C           -2.38034750        2.38347699        1.61559839
 C           -3.33140943        1.33766668        1.28389097
 C           -0.63026885        2.65557379       -0.05103330
 C           -1.93023476        2.92506356        0.35549624
 C           -0.34959808        2.43713500       -1.41531739
 C            1.80234227        1.55347889       -0.79529511
 C            2.66273810        0.48091495       -1.05884067
 C            0.93134321        1.99759049       -1.78187478
 C            2.66410225       -1.58058557       -2.27174213
 C            2.57143045       -0.19087319       -2.27823788
 C            0.92575149       -3.14140843       -2.24899379
 C            1.78576978       -2.35934176       -3.12493282
 C           -1.14650087       -2.13033089       -1.42650955
 C           -0.43083604       -2.70584151       -2.47681258
 C           -2.86658956       -0.59648965       -0.68548497
 C           -2.20787909       -1.27015894       -1.71836449
 C           -3.79132320        1.58066145       -0.05342447
 C           -3.02040940        2.70313791       -0.56815821
 C           -3.65773037        0.50946107       -1.01071634
 C           -1.38720353        2.49084213       -2.36964043
 C           -2.70294171        2.38794294       -1.93771411
 C           -3.43856164        1.17875308       -2.27307268
 C           -1.15230799        2.07987838       -3.67867568
 C            1.22143638        1.66819728       -3.09988240
 C            1.96765010        0.45135191       -3.35656356
 C            0.19232035        1.77489498       -4.10549400
 C            0.93473493       -1.66018273       -4.06355473
 C           -0.43840615       -2.06518104       -3.77799623
 C            1.21421347       -0.32609627       -4.33275749
 C            0.15589736        0.52096133       -4.84527662
 C           -2.45685165       -0.89951498       -3.04797119
 C           -2.97879065        0.42683557       -3.33599639
 C           -2.03196174        1.06317430       -4.23354017
 C           -1.48372578       -1.20892926       -4.08408758
 C           -1.20494682        0.02156147       -4.80855631
