   70
C70 / DATE: 7/ 1/2024 / Origin: Program Fullerene / C70 from database
 C            1.06987291       -0.00249461        5.47155121
 C            0.35380253       -1.18663026        5.03341426
 C            1.28359402       -2.03485429        4.32621153
 C            2.38774894       -0.03387168        4.85842231
 C            2.51173688       -1.27949905        4.12964496
 C            2.56139948        1.20712871        4.13772008
 C            0.36597961        1.16038409        4.95135919
 C            1.32987033        1.97902059        4.26450590
 C           -0.83064364       -0.74944257        4.32693415
 C           -0.78735068        0.69500055        4.20763457
 C           -1.26652027       -1.45277503        3.21529507
 C            0.88075635       -2.55379133        3.03236276
 C           -0.42822321       -2.39136082        2.59135276
 C            2.77895225       -1.24969457        2.69860787
 C            1.94075705       -2.26564753        2.09104234
 C            2.89727647        1.17116851        2.72319388
 C            2.95339667       -0.03809769        2.02514891
 C            0.99634389        2.46662826        2.94136947
 C            2.17458312        2.27077917        2.12413958
 C           -1.10910530        1.25695876        2.96514134
 C           -0.25011506        2.19232581        2.36452685
 C           -2.20113876       -0.81258560        2.41859492
 C           -2.00265380        0.55079692        2.15637803
 C           -2.83067313       -1.59678221        1.47128695
 C           -0.69166242       -2.70552005        1.25459267
 C           -2.00972556       -2.60090441        0.82652249
 C            1.59731666       -2.11740391        0.75550821
 C            0.34217812       -2.55248778        0.32039677
 C            2.74261993       -0.00861749        0.64158529
 C            2.26412428       -1.15478369        0.00293364
 C            1.98154317        2.25500884        0.76028628
 C            2.55596579        1.22713720        0.01860561
 C           -0.37636096        2.45559410        0.99181747
 C            0.78926991        2.78024866        0.29399746
 C           -2.34997404        1.07370979        0.90829503
 C           -1.48298569        1.96911213        0.28119026
 C           -3.62602791       -0.94939086        0.45760810
 C           -3.33718532        0.43768472        0.16534727
 C           -2.30423476       -2.56389734       -0.59134103
 C           -3.45414896       -1.70662136       -0.76685206
 C            0.05778949       -2.45331567       -1.04480951
 C           -1.26482637       -2.44309810       -1.50092779
 C            2.01675990       -1.10804714       -1.36500377
 C            1.06277031       -1.98389233       -1.88858095
 C            2.37766583        1.26408871       -1.36477845
 C            2.33569255        0.05825910       -2.06394308
 C            0.72297293        3.03093505       -1.06095384
 C            1.70681547        2.36719767       -1.89412073
 C           -1.56999098        2.19225252       -1.10525920
 C           -0.54911519        2.90243642       -1.73315640
 C           -3.34966360        0.57850487       -1.27547098
 C           -3.41625033       -0.75801626       -1.85406866
 C           -2.52002812        1.51407666       -1.88401381
 C           -1.54124091       -1.93932623       -2.77774811
 C           -2.59650707       -1.02172988       -2.94271699
 C            0.84748083       -2.01105494       -3.26039269
 C           -0.52585975       -2.01205189       -3.73137853
 C            2.16281709        0.08351187       -3.44680205
 C            1.59845228       -1.08830151       -4.08653923
 C            1.15868486        2.30052901       -3.23387986
 C           -0.25279777        2.66628543       -3.13601165
 C            1.55034003        1.25412643       -4.05739554
 C           -2.31686081        1.36856051       -3.26091702
 C           -2.44095193        0.03682779       -3.82778638
 C           -1.19427299        2.01486509       -3.91545816
 C           -0.58962883       -1.18445977       -4.92351091
 C            0.73748592       -0.64705342       -5.16908647
 C            0.64792620        0.80117337       -5.09958388
 C           -1.52033822       -0.08009086       -4.93643629
 C           -0.75567974        1.15527484       -5.00560141
