   70
C70 / DATE: 7/ 1/2024 / Origin: Program Fullerene / C70 from database
 C            1.45236503       -0.17307816        5.47935827
 C            0.58639146       -1.32472044        5.62523144
 C            1.21915196       -2.43997857        4.93830961
 C            2.54522893       -0.54758769        4.59423237
 C            2.37890039       -1.93283010        4.22409106
 C            2.58576569        0.42816166        3.53143020
 C            0.69097602        0.87166196        4.81197547
 C            1.51694875        1.38460287        3.75051221
 C           -0.65894535       -1.02489614        4.93669612
 C           -0.60094054        0.34142683        4.44031101
 C            0.28606533       -2.92438283        3.94185277
 C           -0.89644700       -2.08314541        3.97812219
 C            2.21620153       -2.25608148        2.81214920
 C            0.99461047       -3.02383010        2.67499858
 C            2.79873285        0.01782702        2.21801590
 C            2.49371333       -1.29632291        1.83494397
 C            2.64246666        0.99772427        1.25485988
 C            0.90234462        1.87701540        2.61010794
 C            1.72006456        2.01450765        1.50938016
 C           -1.07216098        0.59624428        3.14958521
 C           -0.43740388        1.56274692        2.35612077
 C           -1.44627482       -1.73875355        2.75550894
 C           -1.78907217       -0.40837486        2.50915624
 C            0.25519368       -2.83907446        1.51395866
 C           -1.08906139       -2.50818977        1.65730778
 C            2.00228149       -1.51594389        0.53403175
 C            0.90960436       -2.37551075        0.37038040
 C            2.84183855        0.63895333       -0.06669996
 C            2.30215391       -0.58343784       -0.46861445
 C            2.88962558        1.68730299       -0.96985147
 C            1.21351240        2.69284462        0.42258733
 C            2.09880579        2.85292387       -0.62662618
 C           -0.93405971        1.80012785        1.05879451
 C           -0.14580142        2.50880212        0.13783096
 C           -2.35882664       -0.13842493        1.27128224
 C           -2.00029183        1.02838490        0.58586201
 C           -1.81926268       -2.30650511        0.50296352
 C           -2.71683134       -1.24458473        0.51513685
 C            0.16184405       -2.32993384       -0.80818196
 C           -1.19972125       -2.60957775       -0.70152729
 C            1.67770168       -0.68275803       -1.72224934
 C            0.61916103       -1.58489868       -1.89925320
 C            2.65194887        1.42409888       -2.36683285
 C            1.97504221        0.25870383       -2.71749812
 C            1.61819004        3.44004027       -1.84649146
 C            2.23456124        2.69780459       -2.92976983
 C           -0.60669591        2.69615095       -1.17592045
 C            0.19304553        3.41278950       -2.07166306
 C           -2.45007343        1.18687826       -0.73449626
 C           -1.68398457        1.93013897       -1.65162994
 C           -3.47392193       -1.03058128       -0.61901889
 C           -3.42662628        0.29898378       -1.19682131
 C           -1.99141176       -2.59141136       -1.83691206
 C           -3.29708013       -1.96902719       -1.70822071
 C           -0.13542706       -1.57429581       -3.08275411
 C           -1.41289855       -2.13637612       -3.08456670
 C            1.32828129        0.19661985       -3.95006803
 C            0.20239869       -0.70050336       -4.11679173
 C            1.28955070        2.69591487       -4.01883683
 C            0.03021492        3.21928902       -3.49388589
 C            0.99972014        1.42914408       -4.65399616
 C           -1.94427423        1.84435392       -3.03947309
 C           -0.85722965        0.03650179       -4.80820762
 C           -1.02084487        2.34807181       -3.94926631
 C           -0.42603099        1.41394406       -4.88767878
 C           -3.65243402        0.15046473       -2.61811951
 C           -3.59390466       -1.26743982       -2.93620916
 C           -2.46683187       -1.46498864       -3.82613270
 C           -2.75823630        0.82468605       -3.52212549
 C           -2.16159652       -0.17839213       -4.40069463
