   70
C70 / DATE: 7/ 1/2024 / Origin: Program Fullerene / C70 from database
 C            1.48100865       -0.02689280        4.68792176
 C            0.66765459       -1.21026986        4.49561614
 C            1.32158633       -2.06223037        3.51478812
 C            2.64024291       -0.15028437        3.82671810
 C            2.48078587       -1.34471237        3.01384725
 C            2.79863026        1.11382798        3.14274758
 C            0.71117739        1.11117249        4.21369010
 C            1.52805866        1.81765524        3.24730397
 C           -0.68354497       -0.76855399        4.21214306
 C           -0.58403628        0.62035374        3.78905746
 C           -1.48201574       -1.62257795        3.46998848
 C            0.51763505       -2.74788832        2.61425248
 C           -0.85279289       -2.78328198        2.86547916
 C            0.95754190       -2.89246914        1.29780889
 C            2.68539857       -1.24481240        1.63702988
 C            1.84124528       -1.94548512        0.76840003
 C            3.41168929        1.09118173        1.90365212
 C            3.42283083       -0.16402284        1.15777833
 C            3.04441973        2.11383127        0.94969442
 C            0.93790348        2.29530325        2.07769754
 C            1.77583893        2.68834286        1.03431256
 C           -1.05516742        0.97937625        2.52838484
 C           -0.39169890        1.96750953        1.78785618
 C           -2.33250809       -1.05978914        2.43874574
 C           -2.01865946        0.18221760        1.90600656
 C           -1.74296098       -3.24086378        1.81913801
 C           -2.66167578       -2.14227739        1.53209751
 C            0.20744191       -3.68308020        0.43150277
 C           -1.19089558       -3.93470121        0.75507890
 C            0.28180128       -3.42368461       -0.99402293
 C            1.73390620       -1.56440659       -0.58032141
 C            0.84346119       -2.22454291       -1.42405673
 C            3.36007842        0.17782575       -0.25291816
 C            3.49525490        1.62157186       -0.33367433
 C            2.42585798       -0.45675396       -1.06448514
 C            3.01710728        2.26157134       -1.45861140
 C            1.21730530        3.22345603       -0.12576695
 C            2.03735570        3.30634265       -1.25378138
 C           -0.93583520        2.37769359        0.57105097
 C           -0.17222024        3.17841640       -0.28455076
 C           -2.40827590        0.48137296        0.60635690
 C           -2.07311644        1.72445773        0.08914697
 C           -2.97187722       -1.85083625        0.20524766
 C           -2.92211888       -0.51810008       -0.23818022
 C           -1.92917922       -3.95158842       -0.48973672
 C           -0.96241024       -3.88721685       -1.57045836
 C           -2.89211803       -2.89210608       -0.72032311
 C           -1.56192854       -3.11073091       -2.63011173
 C           -2.82831927       -2.58939049       -2.13108007
 C            0.35817862       -1.56724403       -2.56517789
 C           -0.82823725       -1.98166267       -3.16487289
 C            1.96552683        0.19035514       -2.21403079
 C            2.47374686        1.44873484       -2.52805034
 C            0.80915022       -0.27627856       -2.84707612
 C            1.45565418        3.55403747       -2.55592269
 C            1.68564542        2.34917596       -3.34658809
 C           -0.75780258        3.70589187       -1.43531455
 C            0.04778088        3.86879997       -2.63067230
 C           -2.65527266        2.12121272       -1.10110590
 C           -2.04027739        3.18766375       -1.86961898
 C           -3.17044274       -0.22598703       -1.58994110
 C           -2.91103920       -1.20726926       -2.54135791
 C           -1.82008215       -0.97576724       -3.47108273
 C           -3.06637321        1.09097508       -2.03280628
 C           -0.03237013        0.60889365       -3.54598180
 C            0.40022348        1.90164304       -3.83608470
 C           -0.52395999        3.00719691       -3.64846141
 C           -1.87816406        2.70536966       -3.23426286
 C           -1.40051920        0.33379946       -3.63510847
 C           -2.30122855        1.32052943       -3.24494327
