   70
C70 / DATE: 7/ 1/2024 / Origin: Program Fullerene / C70 from database
 C            0.99233341       -0.03830953        4.70658404
 C            2.26715204       -0.33077306        4.09088127
 C            2.24146552       -1.72221451        3.67738800
 C            0.17289283       -1.23939161        4.62071492
 C            0.86174804       -2.16733104        3.74927130
 C           -1.16768479       -0.83204924        4.27478838
 C            0.20397688        1.05729233        4.18157723
 C           -1.17547919        0.61927652        4.17838954
 C            0.65557794        1.78611976        3.08455626
 C            2.68023466        0.45075020        2.94304974
 C            1.90424187        1.51827039        2.50126093
 C            2.92532782       -1.81789495        2.40148993
 C            3.21002400       -0.46397504        1.94996555
 C            2.44459982       -2.72874001        1.47847446
 C            0.25219842       -2.63469019        2.58193102
 C            1.07695819       -3.21354418        1.62285393
 C           -1.75599148       -1.34325733        3.05435102
 C           -1.02494958       -2.18272355        2.20806597
 C           -2.00292801        0.97810493        3.03940631
 C           -2.50966094       -0.25219623        2.46471986
 C           -0.28340415        2.50765491        2.34907522
 C           -1.56273749        1.96626243        2.16829198
 C            0.19245510        3.43467768        1.43182523
 C            2.16928271        2.02866397        1.22983191
 C            1.48567032        3.17457755        0.83032318
 C            3.04902214       -0.13485031        0.60430621
 C            2.74907246        1.18720332        0.27153207
 C            2.64228880       -2.45562251        0.07113828
 C            2.86652625       -1.14597060       -0.34953591
 C            0.56690614       -3.46973958        0.29105442
 C            1.66773165       -3.26123093       -0.63299763
 C           -1.46070889       -2.30915126        0.88031060
 C           -0.69716510       -3.01367214       -0.05873077
 C           -2.74436320       -0.29794983        1.09965739
 C           -2.51597522       -1.50043530        0.44698813
 C           -2.16199406        2.03697872        0.90991893
 C           -2.72027444        0.88328982        0.35145058
 C           -0.69725262        3.90756344        0.39019392
 C           -1.88025685        3.12374669        0.09782201
 C            1.40863018        3.53093308       -0.57657241
 C            0.07391746        4.03139079       -0.83502554
 C            2.76919036        1.55757809       -1.06745113
 C            2.00910911        2.71028325       -1.51653879
 C            2.59302201       -0.80787371       -1.68008347
 C            2.65370647        0.52336419       -2.07748742
 C            1.37135198       -2.93427341       -1.94234197
 C            1.95288355       -1.72756149       -2.51072082
 C           -1.03051575       -2.94581320       -1.41408435
 C           -0.01402337       -2.97909299       -2.37097844
 C           -3.00323588       -1.63317243       -0.84194343
 C           -2.28780544       -2.47773249       -1.77502424
 C           -2.97727978        0.81011177       -1.02515840
 C           -3.38001087       -0.42244048       -1.54907934
 C           -1.96132224        2.97295001       -1.33981571
 C           -0.70250555        3.43761728       -1.90599890
 C           -2.54621190        1.83620497       -1.88243644
 C            1.27915637        2.32545368       -2.71901606
 C            1.75101040        1.00578301       -3.11360480
 C           -0.07145657        2.65181919       -2.86877568
 C            1.04401146       -1.25046883       -3.54454528
 C           -0.10782517       -2.14453631       -3.55699606
 C            0.87320221        0.12116489       -3.73153365
 C           -2.49873079       -1.93408283       -3.10797660
 C           -3.25067006       -0.69695723       -2.96712178
 C           -1.34762701       -1.66574354       -3.95129338
 C           -2.22143087        1.54858862       -3.20668404
 C           -0.87546175        1.84269197       -3.66638623
 C           -0.33616516        0.60973370       -4.21649736
 C           -2.63048862        0.29788981       -3.80868731
 C           -1.45328578       -0.29852907       -4.42231637
