   70
C70 / DATE: 7/ 1/2024 / Origin: Program Fullerene / C70 from database
 C            1.61074723        0.03501584        4.70624806
 C            0.79011192       -1.12908356        4.43240058
 C            1.40596698       -1.88195275        3.35136444
 C            2.72000540        0.01987730        3.77296127
 C            2.57866549       -1.14594408        2.91583190
 C            2.78750433        1.32673482        3.14861004
 C            0.81140183        1.21197681        4.41310083
 C            1.54698447        2.02373038        3.45908491
 C           -0.57453577       -0.67364809        4.25364886
 C           -0.52085183        0.76587968        4.05011810
 C           -1.39400183       -1.42357374        3.42820945
 C            0.57585584       -2.45835117        2.39384662
 C           -0.79157058       -2.48886738        2.64181770
 C            1.01389200       -2.55324864        1.07213294
 C            2.81426190       -1.00417580        1.55345758
 C            2.12959289       -1.81785828        0.65229638
 C            3.27562569        1.39858032        1.85321197
 C            3.40880090        0.16817286        1.08645268
 C            2.73147623        2.40025566        0.95434925
 C            0.84550142        2.63887617        2.42397418
 C            1.55284183        3.05655672        1.29178699
 C           -1.11474372        1.32084375        2.91902008
 C           -0.54127880        2.45316058        2.34431076
 C           -2.30958381       -0.73249761        2.53991608
 C           -2.05383945        0.58434596        2.18947764
 C           -1.69625144       -2.75857549        1.54429373
 C           -2.66430860       -1.67175899        1.49917086
 C            0.18921296       -3.15973618        0.11512784
 C           -1.19225241       -3.23151838        0.33842093
 C            0.69835112       -3.37054306       -1.16661186
 C            2.36709087       -1.65722241       -0.70967709
 C            1.85619452       -2.60264686       -1.58685017
 C            3.28950455        0.51496597       -0.32063299
 C            2.89641996        1.90967169       -0.40466756
 C            2.70847864       -0.39294982       -1.19110459
 C            1.97832125        2.29850271       -1.37607390
 C            0.88223294        3.74368652        0.28722199
 C            1.14015461        3.38138259       -1.09984474
 C           -1.26376772        3.12884011        1.37140590
 C           -0.54309327        3.95676777        0.42842379
 C           -2.49085863        1.05501271        0.94873171
 C           -2.28208910        2.39485871        0.63807676
 C           -3.05322803       -1.20309660        0.25061580
 C           -2.83309590        0.14871984       -0.06818025
 C           -2.06564863       -3.19392931       -0.74565182
 C           -3.07830505       -2.15089216       -0.76519609
 C           -0.20273975       -3.47519688       -2.30372476
 C           -1.56827707       -3.36160745       -2.09709778
 C            1.67535177       -2.23508797       -2.97843398
 C            0.40786744       -2.78355070       -3.42781531
 C            2.10846445        0.08618649       -2.35497729
 C            1.64816558        1.40770307       -2.40368334
 C            1.70610245       -0.82704985       -3.32591771
 C            0.64796747        1.75643777       -3.30981327
 C           -0.09871283        3.55580945       -1.84257713
 C           -1.15611903        3.78934798       -0.87586404
 C           -2.21446402        2.80153034       -0.75188907
 C           -0.36443369        2.71248276       -2.90837475
 C           -2.84482359        0.57851488       -1.40894856
 C           -2.34331158        1.83724196       -1.74109998
 C           -1.62976943        1.99843732       -2.93025570
 C           -3.26219577       -1.72702529       -2.13055506
 C           -2.35846709       -2.50251949       -2.96679275
 C           -3.07081835       -0.33051533       -2.44070170
 C           -0.32415696       -1.72185844       -4.10052503
 C            0.53157876       -0.54524249       -4.13212263
 C           -0.03170026        0.72056090       -4.07116238
 C           -1.46101199        0.86814682       -3.82814569
 C           -1.68790635       -1.57967815       -3.86818242
 C           -2.24848336       -0.25741277       -3.63596713
