   70
C70 / DATE: 7/ 1/2024 / Origin: Program Fullerene / C70 from database
 C            1.21614818        0.03415476        4.46703340
 C            2.46930754       -0.13802266        3.76800916
 C            2.54312206       -1.53015859        3.37496177
 C            0.40997018       -1.16108307        4.24099161
 C            1.19697099       -2.07145403        3.44569273
 C           -0.86901570       -0.72486179        3.72563925
 C            0.38711749        1.16450566        4.11355027
 C           -0.97833273        0.67386507        4.08819550
 C            0.79487806        2.03517147        3.10200470
 C            2.71367573        0.65867104        2.57956979
 C            1.77693733        1.61949276        2.19175914
 C            3.22612355       -1.58794492        2.09736414
 C            3.27667365       -0.23004589        1.57447444
 C            2.86109741       -2.60210167        1.23016508
 C            0.65690258       -2.62406987        2.28873110
 C            1.55776426       -3.22421153        1.41977274
 C           -1.25641036       -1.11754972        2.44607724
 C           -0.55959905       -2.13814077        1.77604096
 C           -2.14909349       -0.30893150        1.73719392
 C           -1.92184116        1.45007285        3.44082865
 C           -2.61755535        0.87434050        2.30013528
 C           -0.12008835        3.00514439        2.71122940
 C           -1.51827333        2.78645582        3.04744190
 C           -0.07764558        3.52819562        1.35741717
 C            1.64754723        1.92969388        0.83157737
 C            0.76556297        2.93619148        0.42021520
 C            2.96874638       -0.00138676        0.23659610
 C            2.38854768        1.21273473       -0.11438462
 C            2.99259145       -2.37267544       -0.19277977
 C            2.95176145       -1.06718120       -0.67463287
 C            1.10337477       -3.67202707        0.12504624
 C            2.16485918       -3.37592260       -0.82516928
 C           -0.97318775       -2.51535071        0.48660815
 C           -0.21189881       -3.43813948       -0.25031165
 C           -2.36351345       -0.55152206        0.38730606
 C           -1.99034736       -1.78147146       -0.13743427
 C           -2.86227454        0.45746958       -0.45295963
 C           -2.99721216        1.96692460        1.42265870
 C           -2.31465968        3.15944650        1.89857819
 C           -1.44292502        3.85830825        0.97548797
 C           -3.04848508        1.75327095        0.04866389
 C           -1.77401713        3.80523350       -0.36601808
 C           -2.78669009        2.84657872       -0.77704866
 C            0.51264724        3.13735539       -0.94088929
 C           -0.70500869        3.68750918       -1.33699830
 C            2.29132406        1.53261631       -1.45801389
 C            1.30948723        2.50595379       -1.89049746
 C            2.55639418       -0.84474880       -2.00046019
 C            2.32130416        0.45751323       -2.43256471
 C            1.82041560       -3.20299540       -2.15358648
 C            2.04221890       -1.89885714       -2.76290863
 C           -0.54522231       -3.72387784       -1.57164748
 C            0.50771255       -3.66020677       -2.57204227
 C           -2.43189372       -2.11798977       -1.40671444
 C           -1.73038091       -3.13800703       -2.15404740
 C           -2.93360197        0.23796339       -1.83670460
 C           -2.74162651       -1.04692008       -2.33019232
 C           -2.60852111        2.63820291       -2.19765311
 C           -1.32671126        3.22214342       -2.56444080
 C           -2.63207526        1.28531092       -2.70165579
 C            0.71841687        2.02097314       -3.13203791
 C            1.25437636        0.70020699       -3.39063523
 C           -0.61891925        2.26018103       -3.38927312
 C           -1.50494728        1.12959208       -3.60693102
 C            0.93571720       -1.63946416       -3.67527625
 C            0.05290298       -2.78951541       -3.63937761
 C           -1.35897663       -2.56684736       -3.44219016
 C           -1.84465645       -1.20542378       -3.46213910
 C            0.40795162       -0.35009705       -3.74100638
 C           -0.98494154       -0.15224056       -3.77639447
