   70
C70 / DATE: 7/ 1/2024 / Origin: Program Fullerene / C70 from database
 C            1.32337210        0.06599322        5.18329720
 C            0.55806777       -1.16727342        5.21357058
 C            1.42365196       -2.21988110        4.72918266
 C            2.49402500       -0.16807871        4.35316207
 C            2.58287719       -1.58855180        4.10994609
 C            2.40754473        0.72089305        3.21266558
 C            0.51210950        1.07517996        4.52379045
 C            1.27157372        1.59843916        3.41480400
 C           -0.70444580       -0.92209895        4.53405229
 C           -0.78005105        0.50086666        4.22902117
 C           -1.20362903       -1.83782672        3.60310533
 C            0.88378853       -3.16797481        3.77810245
 C           -0.45085276       -2.95766554        3.23690517
 C            2.65331282       -2.05371726        2.73718173
 C            1.79752169       -3.21600165        2.64958634
 C            2.62504929        0.23781750        1.92217103
 C            2.63065874       -1.14262274        1.67879835
 C            2.27711966        1.08174259        0.86839025
 C            0.58665385        1.99884964        2.27873852
 C            1.31111605        2.06011054        1.09666265
 C           -1.42711691        0.89033732        3.06015738
 C           -0.79218556        1.78000154        2.18074976
 C           -2.20476940       -1.40207862        2.73990352
 C           -2.38801605        0.02805364        2.55520207
 C           -2.34540100       -2.02312708        1.43220675
 C           -0.39894521       -3.35549865        1.83745467
 C            0.99944254       -3.37486693        1.45244141
 C           -1.31507171       -2.81509158        0.93861224
 C            2.24430645       -1.60083488        0.41394477
 C            1.35234640       -2.67079967        0.31260564
 C            2.45640649        0.63191500       -0.43299856
 C            2.35109688       -0.73822935       -0.67682608
 C            2.21405608        1.52185495       -1.47822964
 C            0.71021551        2.66597026        0.00310303
 C            1.35469656        2.59992478       -1.23206800
 C           -1.40627258        2.10844092        0.96670374
 C           -0.67187778        2.85907691        0.04807016
 C           -2.90300124        0.24108327        1.21920659
 C           -2.96938345       -1.04497024        0.55421398
 C           -2.46572194        1.33077137        0.48235898
 C           -2.69825511       -1.08341897       -0.80775684
 C           -0.93295413       -2.65077547       -0.39485275
 C            0.42795613       -2.64073488       -0.71954755
 C           -1.83583992       -2.07321353       -1.28511204
 C            1.86850650       -1.16583183       -1.91707343
 C            0.82706700       -2.09679338       -1.93542097
 C            2.38712068        1.04555902       -2.77441806
 C            2.09948522       -0.35187988       -3.02233774
 C            1.90710846        1.81124755       -3.90699930
 C            0.85401634        3.37129603       -2.27899686
 C            1.13360736        3.00567202       -3.65404918
 C           -1.32612660        3.30508408       -1.09335054
 C           -0.53517001        3.77408180       -2.21572716
 C           -2.72235686        1.32840926       -0.89027529
 C           -2.85514964        0.09557263       -1.54343670
 C           -2.38973743        2.47062567       -1.61421385
 C           -2.78514785        0.02491387       -2.93197163
 C           -1.50471330       -2.08170501       -2.63503601
 C           -0.09501404       -2.09731733       -2.97788041
 C           -2.16569419       -1.14370551       -3.52161216
 C            1.22202735       -0.42135895       -4.17961712
 C            1.10396840        0.92160344       -4.73005157
 C            0.10207269       -1.23731272       -4.13045388
 C           -1.19371842       -0.69232303       -4.50261278
 C           -0.14220657        2.86898890       -4.34154699
 C           -1.18169709        3.32399368       -3.43703664
 C           -2.24439900        2.40867019       -3.05894803
 C           -2.36165678        1.18314489       -3.69928219
 C           -0.21267542        1.52220095       -4.87908911
 C           -1.34469182        0.74517391       -4.65123954
