   70
C70 / DATE: 7/ 1/2024 / Origin: Program Fullerene / C70 from database
 C            1.17765842        0.03708275        4.38437348
 C            2.43242714       -0.22611616        3.71780919
 C            2.37999091       -1.58903867        3.21422458
 C            0.33800006       -1.14093733        4.23072958
 C            1.01308249       -2.04379949        3.32259910
 C           -0.99717194       -0.69193029        3.88259062
 C            0.39997463        1.18125761        3.95984371
 C           -0.98771287        0.76419979        3.85596602
 C            0.90099009        2.04953483        2.99720441
 C            2.82569959        0.62899337        2.61228586
 C            1.98505407        1.65289057        2.19479717
 C            2.99240163       -1.59022574        1.90742621
 C            3.41717109       -0.23089839        1.60951673
 C            2.40743793       -2.32285353        0.88111533
 C            0.34204666       -2.44263536        2.17191431
 C            1.04909591       -2.66627096        0.97921349
 C           -1.70228864       -1.36803106        2.89557416
 C           -1.05172567       -2.35378618        2.14202439
 C           -2.81578520       -0.72955192        2.36465432
 C           -1.82857110        1.43953378        2.96641632
 C           -2.82806458        0.72286069        2.30598055
 C            0.01575427        3.00318995        2.51677823
 C           -1.39415684        2.64947603        2.42103679
 C            0.36736720        3.76341477        1.33822518
 C            2.09369693        2.10578595        0.87590717
 C            1.43589423        3.26632650        0.49762580
 C            3.41385973        0.15939217        0.27415019
 C            2.66951575        1.28960361       -0.10724682
 C            2.96640991       -2.14222416       -0.37884860
 C            3.60399028       -0.86349281       -0.64634537
 C            2.20781878       -2.49928959       -1.56010568
 C            0.34112445       -3.04375983       -0.16757067
 C            0.84769714       -2.73438329       -1.43226684
 C           -1.73649027       -3.00037095        1.11932765
 C           -0.98291558       -3.44666911       -0.03797730
 C           -3.42241483       -1.23157425        1.14789550
 C           -2.99682920       -2.45113925        0.64494784
 C           -3.21082380        1.10106726        0.95185952
 C           -3.58351204       -0.10348292        0.23931281
 C           -1.84786675        3.03802548        1.09464245
 C           -0.82629920        3.87894472        0.51687115
 C           -2.49787408        2.09852079        0.30010094
 C            0.99898187        3.40720991       -0.87391615
 C           -0.43753308        3.63450805       -0.84766740
 C            2.41915589        1.55390688       -1.46952932
 C            1.50288379        2.54600779       -1.84122559
 C            3.46993948       -0.58506942       -2.05355113
 C            2.68009510       -1.65792282       -2.64053702
 C            2.86928959        0.66812271       -2.44826827
 C            1.70490472       -1.04748594       -3.51817237
 C            2.01402765        0.37391249       -3.58196570
 C           -0.01898360       -2.38833701       -2.47939637
 C            0.37427758       -1.44987366       -3.44216076
 C           -1.85733184       -3.37360279       -1.19039000
 C           -3.06417177       -2.66986859       -0.78646633
 C           -1.36402974       -2.73781271       -2.39745619
 C           -3.23140578       -0.24158801       -1.09653588
 C           -3.20400843       -1.51864536       -1.65829090
 C           -2.36600212       -1.77182590       -2.81413892
 C           -2.13465270        1.93165497       -1.04883238
 C           -1.23514813        2.83408671       -1.65235100
 C           -2.62231905        0.82203209       -1.76844941
 C            0.73806778        2.37541729       -2.99798413
 C            1.00097203        1.26472046       -3.89757707
 C           -0.70353638        2.54077316       -2.89936711
 C           -0.59179934       -0.65530761       -4.05693267
 C           -1.96239829       -0.69396025       -3.57981475
 C           -2.27856538        0.64287121       -3.10771247
 C           -0.28207745        0.73638087       -4.33022978
 C           -1.33228910        1.54205612       -3.72566041
