   70
C70 / DATE: 7/ 1/2024 / Origin: Program Fullerene / C70 from database
 C            1.22892981        0.18884426        4.63000543
 C            2.47377302        0.02100052        3.91432359
 C            2.48118904       -1.33163508        3.38533316
 C            0.40315876       -0.97823984        4.34327636
 C            1.11823067       -1.80522924        3.39109110
 C           -0.91626683       -0.50411642        3.98859991
 C            0.43509842        1.36671401        4.35066938
 C           -0.93902959        0.93031784        4.19001530
 C            0.76286528        2.17962269        3.19073303
 C            2.77582993        0.91053273        2.80286634
 C            1.81577932        1.80930828        2.35089382
 C            3.15996613       -1.28209925        2.11717658
 C            3.48448627        0.10830639        1.83420220
 C            2.67438041       -2.04334932        1.06409586
 C            0.51316523       -2.11588417        2.17259006
 C            1.30472593       -2.36183697        1.03919312
 C           -1.52853707       -0.99458010        2.84566783
 C           -0.85951630       -1.90820985        2.02145315
 C           -2.56007237       -0.24371126        2.29847323
 C           -1.54083256        1.74863288        3.15006448
 C           -0.49685181        2.59661596        2.60172819
 C           -2.42132843        1.14800569        2.25556165
 C           -0.53466118        2.87893519        1.24511274
 C            1.73101161        2.09632416        0.98493268
 C            0.65905213        2.86389962        0.52532879
 C            3.49886464        0.49167971        0.49919089
 C            2.62132397        1.50314693        0.06883552
 C            3.33396511       -1.84734214       -0.13633117
 C            3.84887465       -0.51276451       -0.39512532
 C            2.75089691       -2.33777814       -1.35927768
 C            0.67546990       -2.67028492       -0.17924852
 C            1.43361655       -2.77056549       -1.35956505
 C           -1.49334806       -2.34570298        0.85850875
 C           -0.72432528       -2.78453021       -0.22290992
 C           -3.38284279       -0.87216448        1.37909991
 C           -2.83920464       -2.01344900        0.66515208
 C           -4.11529467       -0.05775797        0.43047860
 C           -2.68875440        1.81623417        1.05947238
 C           -1.74220476        2.71831710        0.56386336
 C           -3.66576042        1.30240078        0.21078634
 C           -1.83426511        3.16482845       -0.75138365
 C            0.65692144        3.31828436       -0.78321094
 C           -0.61820587        3.56351481       -1.43561941
 C            2.49693054        1.78117196       -1.30701059
 C            1.52517810        2.67600696       -1.74520409
 C            3.75181273       -0.26477451       -1.81053967
 C            3.19175545       -1.45530488       -2.42698713
 C            2.97511061        0.86902237       -2.24714200
 C            2.21922908       -1.03054693       -3.41756126
 C            2.07541804        0.41227782       -3.29581601
 C            0.79615692       -2.83099085       -2.59487694
 C            1.08236540       -1.80244012       -3.58366520
 C           -1.36765704       -3.10371611       -1.41855246
 C           -0.61883016       -3.09627586       -2.65386506
 C           -3.40875780       -2.00851855       -0.67303833
 C           -4.10581707       -0.74567793       -0.84807847
 C           -2.63947752       -2.47995255       -1.72157521
 C           -3.54933015        1.49674617       -1.22530887
 C           -2.63684148        2.41850026       -1.70406550
 C           -3.61383818        0.18579026       -1.84849939
 C           -0.59900435        2.88945683       -2.72451235
 C            0.70848805        2.30091022       -2.89137793
 C            0.81919529        1.00750971       -3.38715948
 C           -1.75546410        2.02323170       -2.78718403
 C           -0.17430375       -1.13658068       -3.85797346
 C           -1.21349832       -2.08504583       -3.51984519
 C           -2.40228096       -1.60199348       -2.85732577
 C           -2.59368635       -0.23186114       -2.70206879
 C           -0.32531672        0.20093978       -3.49776193
 C           -1.57780927        0.66788018       -3.05910904
