   70
C70 / DATE: 7/ 1/2024 / Origin: Program Fullerene / C70 from database
 C            1.33768906       -0.00775756        4.30752950
 C            2.54516297       -0.16067733        3.51205176
 C            2.44222572       -1.41546896        2.78679359
 C            0.51664507       -1.18994055        4.10394422
 C            1.15211143       -2.01160220        3.10317504
 C           -0.83588243       -0.75613312        3.86331542
 C            0.49595027        1.16383030        4.11284594
 C           -0.85320587        0.69727040        3.85769564
 C            0.98559594        2.23729948        3.38543865
 C            3.07791466        0.94754743        2.87520643
 C            2.37221202        2.21797900        2.95152981
 C            3.59615167        0.80779992        1.52720678
 C            2.92248407       -1.52191029        1.48267060
 C            3.53979861       -0.42163156        0.86775033
 C            2.42440518       -2.56822001        0.70678861
 C            0.38990564       -2.54722714        2.06770260
 C            1.08761184       -3.07366699        0.98486687
 C           -1.60170186       -1.40675526        2.90641511
 C           -0.95615564       -2.16409787        1.90807807
 C           -2.80556810       -0.78661135        2.60406005
 C           -1.64821278        1.33345080        2.90618801
 C           -2.80937632        0.66713863        2.53156725
 C            0.18341050        2.78121589        2.29910592
 C           -1.04642844        2.20214213        1.98851358
 C            2.43665746        2.84658954        1.64522255
 C            3.25506869        2.01474202        0.78773846
 C            1.08474058        3.13912967        1.21881689
 C            2.90778530        1.88612826       -0.55137516
 C            3.73551977       -0.41298750       -0.51370825
 C            3.45454645        0.81150390       -1.24504067
 C            2.61709688       -2.57925256       -0.73103311
 C            3.29142000       -1.52834562       -1.33035685
 C            0.41470114       -3.25873441       -0.28369262
 C            1.40240245       -3.10370944       -1.33638383
 C           -1.60262509       -2.40605050        0.68059519
 C           -0.85633213       -2.73003618       -0.44854448
 C           -3.60464634       -1.29057884        1.51510116
 C           -2.94773356       -2.09912519        0.51740239
 C           -3.47840714        1.03536681        1.30175594
 C           -4.18595744       -0.14488564        0.84054478
 C           -1.50551280        2.24475078        0.66439048
 C           -2.80289733        1.81548670        0.37002021
 C            0.72270176        2.82166851       -0.08104930
 C            1.70608184        2.44666034       -1.00051225
 C           -0.61795461        2.57548484       -0.37016646
 C            1.34557353        2.29953629       -2.33526547
 C            2.93751058        0.45194773       -2.55321178
 C            2.82501665       -0.99774536       -2.60313602
 C            1.95302330        1.24280318       -3.12831375
 C            0.99155808       -2.64218307       -2.57773522
 C            1.74015675       -1.58678332       -3.24369122
 C           -1.30291178       -2.35550687       -1.72193037
 C           -0.42107203       -2.38908644       -2.80193297
 C           -3.40811185       -1.64448547       -0.78308697
 C           -4.18620599       -0.42570023       -0.57857676
 C           -2.54376927       -1.72863758       -1.87489516
 C           -3.24257018        1.79654809       -0.95293126
 C           -3.98386148        0.63785236       -1.44305293
 C           -1.02272420        2.51225299       -1.70358965
 C           -0.05840117        2.37825146       -2.70150597
 C           -2.34813931        2.22990615       -2.00851803
 C            0.90757409        0.62768254       -3.93048334
 C            0.78848561       -0.75769354       -3.96850566
 C           -0.52304606       -1.37325818       -3.83311367
 C           -0.28416599        1.44845751       -3.79904290
 C           -2.75926459       -0.88966262       -2.97091922
 C           -3.50057686        0.34040324       -2.77426107
 C           -2.64309184        1.43457392       -3.18810265
 C           -1.66342658       -0.58411228       -3.87602354
 C           -1.53695849        0.86686024       -3.93833923
