   70
C70 / DATE: 7/ 1/2024 / Origin: Program Fullerene / C70 from database
 C            1.71013108        0.00000000        4.60220654
 C            0.86690713       -1.17107581        4.44804853
 C            1.33835086       -1.92025587        3.29325569
 C            2.66319123       -0.00000000        3.50980924
 C            2.51134538       -1.24083225        2.77330315
 C            2.51134538        1.24083225        2.77330315
 C            0.86690713        1.17107581        4.44804853
 C            1.33835086        1.92025587        3.29325569
 C           -0.51466518       -0.72923848        4.47120302
 C           -0.51466518        0.72923848        4.47120302
 C           -1.43120533       -1.41431415        3.68467411
 C            0.40604220       -2.43499564        2.39462300
 C           -0.94492927       -2.40165175        2.73072510
 C            0.76659732       -2.60372673        1.05548707
 C            2.69121537       -1.19642014        1.39862176
 C            1.98778528       -2.09319642        0.59884816
 C            2.69121537        1.19642014        1.39862176
 C            3.11823097       -0.00000000        0.82955149
 C            1.98778528        2.09319642        0.59884816
 C            0.40604220        2.43499564        2.39462300
 C            0.76659732        2.60372673        1.05548707
 C           -1.43120533        1.41431415        3.68467411
 C           -0.94492927        2.40165175        2.73072510
 C           -2.52177036       -0.69229644        3.04812132
 C           -2.52177036        0.69229644        3.04812132
 C           -1.93889652       -2.51389038        1.68175382
 C           -2.86492278       -1.40028552        1.82820182
 C           -0.18394488       -3.06154169        0.13722586
 C           -1.54467291       -2.88291598        0.40265501
 C            0.22484247       -3.38620535       -1.15389928
 C            2.30368537       -2.15982142       -0.75856448
 C            1.54394388       -2.97119970       -1.59387411
 C            3.44775888       -0.00000000       -0.51572595
 C            3.12187848       -1.17208499       -1.31008558
 C            2.30368537        2.15982142       -0.75856448
 C            3.12187848        1.17208499       -1.31008558
 C            1.54394388        2.97119970       -1.59387411
 C           -0.18394488        3.06154169        0.13722586
 C            0.22484247        3.38620535       -1.15389928
 C           -1.93889652        2.51389038        1.68175382
 C           -2.86492278        1.40028552        1.82820182
 C           -1.54467291        2.88291598        0.40265501
 C           -3.25986498       -0.70143672        0.68725613
 C           -3.25986498        0.70143672        0.68725613
 C           -2.40850623       -2.57313936       -0.64308457
 C           -3.25946647       -1.40047188       -0.51956282
 C           -0.69523223       -3.19779445       -2.26603220
 C           -1.94093177       -2.64679549       -2.01370198
 C            1.46504509       -2.66507431       -3.01236675
 C            0.06468470       -2.69668941       -3.39536354
 C            2.91531736       -0.72755064       -2.68130689
 C            2.91531736        0.72755064       -2.68130689
 C            2.02938103       -1.41831278       -3.49652322
 C            1.46504509        2.66507431       -3.01236675
 C            2.02938103        1.41831278       -3.49652322
 C           -0.69523223        3.19779445       -2.26603220
 C            0.06468470        2.69668941       -3.39536354
 C           -2.40850623        2.57313936       -0.64308457
 C           -3.25946647        1.40047188       -0.51956282
 C           -1.94093177        2.64679549       -2.01370198
 C           -3.22015977       -0.69029410       -1.78554102
 C           -2.31379106       -1.40165385       -2.67100055
 C           -3.22015977        0.69029410       -1.78554102
 C           -2.31379106        1.40165385       -2.67100055
 C           -0.27364694       -1.39359507       -3.94062779
 C            0.97379672       -0.69365726       -4.18990030
 C            0.97379672        0.69365726       -4.18990030
 C           -0.27364694        1.39359507       -3.94062779
 C           -1.36386800       -0.69995345       -3.41548915
 C           -1.36386800        0.69995345       -3.41548915
