   70
C70 / DATE: 7/ 1/2024 / Origin: Program Fullerene / C70 from database
 C            1.27130000       -0.05068746        4.45141874
 C            2.53544073       -0.32864550        3.81275868
 C            2.50000700       -1.70942551        3.36764915
 C            0.42245892       -1.22570882        4.29022701
 C            1.11516220       -2.14323268        3.41864056
 C           -0.88605431       -0.75166642        3.89962956
 C            0.49693818        1.08258220        3.99149877
 C           -0.88543848        0.67740371        4.14207121
 C            0.87021315        1.75776156        2.82549278
 C            2.92990370        0.47708951        2.67644056
 C            2.13508865        1.54328431        2.25396626
 C            3.19226181       -1.78121795        2.09456632
 C            3.48894829       -0.41938295        1.67545797
 C            2.71058721       -2.66629598        1.15000404
 C            0.51017324       -2.56851364        2.23878233
 C            1.33580374       -3.13823026        1.27264160
 C           -1.47145914       -1.22048824        2.72548545
 C           -0.74010278       -2.05168415        1.85675508
 C           -2.59075719       -0.53360426        2.24734965
 C           -1.85073605        1.43323401        3.50906598
 C           -2.87584959        0.73424373        2.75825404
 C           -0.11823830        2.45365715        2.11537755
 C           -1.40594830        2.51137436        2.64678371
 C            0.10182266        2.82437563        0.78441938
 C            2.42140619        2.08911893        1.00842435
 C            1.39640080        2.82487005        0.29445917
 C            3.38641870       -0.06063064        0.32929727
 C            3.14037897        1.27466699        0.03883989
 C            2.91927482       -2.36070983       -0.24726552
 C            3.11573834       -1.03549894       -0.64039534
 C            0.83430847       -3.34684416       -0.07116619
 C            1.96264383       -3.17237828       -0.96938315
 C           -1.24659021       -2.34126461        0.58091818
 C           -0.39812601       -2.81104162       -0.42095756
 C           -3.20402213       -0.95503455        1.07257774
 C           -2.51833647       -1.91179990        0.22751379
 C           -3.87222011        0.00956623        0.20786530
 C           -3.48154124        1.73289101        1.89829644
 C           -2.52205976        2.82376221        1.77745031
 C           -3.88994786        1.35372940        0.56022360
 C           -0.96567609        2.93926871       -0.11313073
 C           -2.27024734        3.02320340        0.36761648
 C           -3.32893274        2.33848103       -0.35025876
 C           -0.76261849        2.72280263       -1.48184314
 C            1.61843779        2.62909669       -1.12542965
 C            2.68355145        1.64913924       -1.28076833
 C            0.53253210        2.58065125       -1.99331574
 C            2.76936918       -0.66621572       -1.94973340
 C            2.56351978        0.68608276       -2.27321875
 C            1.70858097       -2.84950079       -2.28602114
 C            2.36133035       -1.67563056       -2.83005180
 C           -0.65503029       -2.50179260       -1.76139830
 C            0.32631164       -2.76286883       -2.71419537
 C           -2.78098880       -1.56347864       -1.15886758
 C           -3.60254494       -0.36434220       -1.17047995
 C           -1.76167114       -1.71414390       -2.09653477
 C           -3.10111459        1.99205875       -1.67148772
 C           -1.85859187        2.41855225       -2.28920816
 C           -3.34242684        0.62351967       -2.10938705
 C           -1.71735170       -0.86668169       -3.21382845
 C           -1.67192128        1.57458249       -3.44847819
 C           -2.40402233        0.34555099       -3.18203411
 C            0.72725611        1.98680992       -3.24255570
 C            1.82259200        1.04185295       -3.39972712
 C           -0.40728942        1.48254151       -4.00312440
 C            1.63393368       -1.34898850       -4.04012066
 C            0.33311983       -2.00202434       -3.94496994
 C           -0.68440758       -0.99200546       -4.13979924
 C            1.41095902        0.03944306       -4.35846290
 C           -0.01191009        0.21441130       -4.59062009
