   70
C70 / DATE: 7/ 1/2024 / Origin: Program Fullerene / C70 from database
 C            1.19615457        0.21614465        5.12470721
 C            0.39325229       -0.99322722        5.06870889
 C            1.30745879       -2.08847762        4.84806708
 C            2.46358966       -0.07695136        4.47915779
 C            2.58279463       -1.51373804        4.42608377
 C            2.51342739        0.67352851        3.23382080
 C            0.52631305        1.21428939        4.31902349
 C            1.44503964        1.65157323        3.28384187
 C           -0.68160198       -0.76704088        4.11167064
 C           -0.74240115        0.66300304        3.88158141
 C           -0.85990002       -1.63031915        3.02402678
 C            0.94017908       -3.09691371        3.87616092
 C           -0.17661252       -2.84604677        2.97702774
 C            2.92910478       -2.12539217        3.16361602
 C            2.10448433       -3.31144044        3.04258743
 C            2.75664314        0.01693767        2.02492704
 C            3.12321395       -1.34010499        2.02356359
 C            2.36023809        0.64715440        0.82975843
 C            0.87881111        2.05633917        2.08564250
 C            1.54833620        1.78476882        0.89380721
 C           -1.21560763        1.10077717        2.65788081
 C           -0.50787694        2.11672614        2.02924491
 C           -1.46406052       -1.13767231        1.85900377
 C           -1.87641012        0.19586081        1.83346446
 C           -1.31539370       -1.82814137        0.64990021
 C            0.19839271       -3.39042527        1.68520722
 C            1.63095392       -3.65992972        1.72146444
 C           -0.34507203       -2.82724298        0.53330850
 C            3.18458780       -2.01387275        0.81128952
 C            2.38873509       -3.22821273        0.64841402
 C            2.60132388        0.03699168       -0.40363536
 C            3.08816449       -1.26758422       -0.42801270
 C            2.03521821        0.56429467       -1.57178360
 C            0.98347196        2.31096792       -0.27185121
 C            1.22742542        1.70229932       -1.50773519
 C           -1.06544994        2.63610874        0.87862376
 C           -0.18783047        3.04994818       -0.11547240
 C           -2.43944375        0.72034533        0.67154579
 C           -2.27459198        2.08723291        0.47252081
 C           -1.87976169       -1.30245204       -0.51470319
 C           -2.58443487       -0.09396750       -0.45309251
 C           -1.45153289       -1.79661091       -1.74989795
 C            0.34980378       -2.95800270       -0.67045432
 C            1.73509478       -3.11156263       -0.63242859
 C            2.54919477       -2.19576939       -1.40126416
 C           -0.21229118       -2.43443243       -1.83035429
 C            1.98276062       -0.23795422       -2.70895071
 C            1.99320685       -1.67787661       -2.54855777
 C            0.64841016       -2.09932587       -2.87483644
 C            0.98583662        0.03423382       -3.72587504
 C            0.19025329       -1.18034278       -3.88821923
 C            0.49755351        2.12119767       -2.63669209
 C            0.33269570        1.25922947       -3.73477062
 C           -0.73679416        3.68399905       -1.21855264
 C           -0.28095944        3.27651524       -2.53258915
 C           -2.91342770        2.68533354       -0.59855152
 C           -2.18597284        3.74080605       -1.27801815
 C           -3.11230205        0.46776763       -1.62390978
 C           -3.46242735        1.82329818       -1.62672119
 C           -2.03281060       -1.31207758       -2.91897686
 C           -1.17433895       -1.04683083       -4.06738376
 C           -2.99014640       -0.22525291       -2.82883396
 C           -0.80490846        1.35281412       -4.54171574
 C           -1.63947325        0.17602680       -4.68324987
 C           -2.92000578        0.49883195       -4.08953586
 C           -1.38173987        3.50500704       -3.45598862
 C           -2.58116157        3.73478148       -2.67010409
 C           -3.45200572        2.58867494       -2.86628244
 C           -1.70265909        2.47815430       -4.41723498
 C           -3.02071764        1.94322907       -4.08341282
