   70
C70 / DATE: 7/ 1/2024 / Origin: Program Fullerene / C70 from database
 C            1.57654128        0.05231493        4.85631220
 C            0.79018864       -1.16566764        4.77027338
 C            1.33448384       -1.97251879        3.69289857
 C            2.64440492       -0.05226276        3.88209888
 C            2.62744759       -1.40336757        3.35181847
 C            2.51506264        1.05009754        2.94126264
 C            0.72010141        1.15033513        4.45000215
 C            1.26522628        1.72447467        3.23444033
 C           -0.60131327       -0.78077187        4.69092880
 C           -0.64105210        0.65427439        4.41812655
 C           -1.45659781       -1.60621098        3.97568512
 C            0.47680805       -2.40887127        2.67625097
 C           -0.89212224       -2.44566317        2.92077582
 C            0.94637270       -2.49103128        1.35991462
 C            3.09808000       -1.57992545        2.06588039
 C            2.31142132       -2.38026955        1.14668441
 C            2.85106327        0.81063081        1.61242401
 C            3.47346921       -0.39528226        1.31734950
 C            2.13737732        1.45339318        0.59322802
 C            0.39696547        1.99675404        2.18743973
 C            0.88824010        2.01725856        0.87867619
 C           -1.49693133        1.12223980        3.42361565
 C           -0.98124691        1.94120685        2.40933572
 C           -2.67018546       -1.01787349        3.45194604
 C           -2.67028328        0.40807796        3.18952589
 C           -1.80643635       -2.42941364        1.79536974
 C           -2.98021819       -1.68665908        2.20299710
 C            0.06373266       -2.33343026        0.27612265
 C           -1.30678024       -2.22711776        0.51256272
 C            0.55346894       -2.15326448       -1.03326542
 C            2.78837420       -2.04905933       -0.17385876
 C            3.53866200       -0.80901406       -0.05806276
 C            1.93811173       -2.16784321       -1.26489282
 C            2.49872970        1.22407611       -0.74140657
 C            3.32542493        0.12924269       -1.04757513
 C            1.74598028        1.82140869       -1.76334072
 C            0.05926855        2.45022841       -0.15917341
 C            0.44413075        2.25865143       -1.48795105
 C           -1.83019027        2.40720997        1.41371753
 C           -1.26560906        2.76802659        0.12192089
 C           -3.39678771        0.61032171        1.95189413
 C           -3.49664854       -0.68510197        1.29630738
 C           -3.08704103        1.71525257        1.17203417
 C           -2.11644091       -1.61807704       -0.44340694
 C           -3.15178034       -0.75889915       -0.04456309
 C           -0.32911352       -1.75018267       -2.05849412
 C           -1.69451229       -1.58560145       -1.76981660
 C            0.16404029       -1.46252434       -3.34725118
 C            2.42529568       -1.61321018       -2.44272973
 C            3.23719591       -0.41131041       -2.31661258
 C            1.53668626       -1.40993249       -3.55858989
 C            2.16094911        1.65598415       -3.08465572
 C            2.90814019        0.46466610       -3.40884217
 C            2.09882786       -0.30834715       -4.32729890
 C            1.21698778        1.85076143       -4.16557988
 C            1.19669911        0.62519495       -4.96173513
 C           -0.52495011        2.32969927       -2.50591504
 C           -0.15304617        2.18024773       -3.84116034
 C           -2.27816944        2.50378641       -0.87925254
 C           -3.24746783        1.60969467       -0.26793983
 C           -3.43409728        0.35034965       -0.83273082
 C           -1.88177419        2.23167703       -2.17968333
 C           -2.52437121       -0.92895990       -2.67326336
 C           -3.25579387        0.22714880       -2.19927897
 C           -2.68573533        1.35511096       -2.90418413
 C           -0.66738795       -0.90021304       -4.31835642
 C           -0.18592639        0.22734693       -5.10227071
 C           -0.98622952        1.36948918       -4.71088437
 C           -2.03871381       -0.59805871       -3.99313950
 C           -2.21900600        0.83930315       -4.17265836
