   70
C70 / DATE: 7/ 1/2024 / Origin: Program Fullerene / C70 from database
 C            1.20672265        0.00535041        4.29185779
 C            2.50663972       -0.33235474        3.76830380
 C            2.48692997       -1.74733087        3.42778245
 C            0.39538747       -1.20288584        4.25321147
 C            1.09692971       -2.16632657        3.43978862
 C           -0.92816789       -0.80751556        3.84550954
 C            0.44090230        1.04519429        3.63335440
 C           -0.94060919        0.64305936        3.76426748
 C            0.86521081        1.56024542        2.40965337
 C            2.98191927        0.37207416        2.59913964
 C            2.14573690        1.26631225        1.92158898
 C            3.25184073       -1.91101730        2.20453981
 C            3.74507213       -0.59364115        1.83176808
 C            2.74777356       -2.74886815        1.21875649
 C            0.51666399       -2.61638539        2.25311416
 C            1.35332310       -3.16847673        1.28947393
 C           -1.57026702       -1.51267135        2.83435923
 C           -0.78683783       -2.21924155        1.90307861
 C           -2.79563275       -0.98903933        2.43949012
 C           -1.88330363        1.21076081        2.92486698
 C           -3.00535534        0.42981913        2.66718287
 C           -0.09413716        2.11262946        1.55494362
 C           -1.44582904        2.09898445        1.93497195
 C            0.28954699        2.60025312        0.29607952
 C            2.47963777        1.62184669        0.61582394
 C            1.60930488        2.40597132       -0.14201054
 C            3.99521891       -0.30953973        0.49985634
 C            3.53039960        0.95863409       -0.02382520
 C            3.06145925       -2.48229214       -0.17581670
 C            3.71587733       -1.31097697       -0.52199509
 C            0.87547595       -3.34103139       -0.06330556
 C            1.93271944       -2.92330394       -0.97160696
 C           -1.23833601       -2.37829055        0.57696356
 C           -0.43631386       -3.01713670       -0.37919410
 C           -3.30564192       -1.27550326        1.11832909
 C           -2.43975401       -1.79118202        0.17014101
 C           -3.99111324        0.89132437        1.71655814
 C           -4.17690201       -0.17277762        0.74147470
 C           -2.39210944        2.70642628        1.11640790
 C           -3.71486146        2.11372859        0.99451490
 C           -0.66095567        3.19550849       -0.55200390
 C           -2.00481181        3.14613657       -0.20522488
 C           -0.39454614        3.29251195       -1.91308222
 C            1.96233452        2.68620322       -1.46298097
 C            0.96015319        3.16513221       -2.38527583
 C            3.50447851        0.81312031       -1.46388199
 C            3.31117662       -0.60262207       -1.72690805
 C            2.77036216        1.72583727       -2.19204621
 C            1.57521608       -2.24571376       -2.13416295
 C            2.18281134       -1.01544256       -2.44008352
 C           -0.74676668       -2.88740681       -1.73331355
 C            0.32387866       -2.54670678       -2.65837990
 C           -2.61768141       -1.43792901       -1.16471036
 C           -1.92364991       -2.14115541       -2.13261643
 C           -4.02931350        0.41065613       -0.58017612
 C           -3.94638300        1.84485924       -0.41325995
 C           -2.93019834        2.55163386       -1.16088553
 C           -3.16371124       -0.19267905       -1.48375284
 C           -1.26234298        2.57310837       -2.83029038
 C           -2.39216931        1.95820888       -2.29849736
 C           -2.57716337        0.58146283       -2.49291732
 C            0.95237143        2.26737409       -3.53230510
 C            1.94715924        1.23948901       -3.28144057
 C            1.56010958       -0.10005043       -3.30467673
 C           -0.42149112        1.86957638       -3.78375131
 C           -0.23118301       -1.72096623       -3.70544562
 C           -1.63347263       -1.49008861       -3.39608706
 C           -1.88955537       -0.06601032       -3.51716596
 C            0.38120816       -0.43937828       -3.96502163
 C           -0.69138466        0.54050515       -4.06905410
