   70
C70 / DATE: 7/ 1/2024 / Origin: Program Fullerene / C70 from database
 C            1.26156454        0.04250780        4.34761201
 C            2.54195454       -0.20243492        3.72171878
 C            2.60410252       -1.61819406        3.42220184
 C            0.44477813       -1.15188720        4.18205191
 C            1.25413090       -2.14884852        3.52047775
 C           -0.79878036       -0.75069870        3.56224287
 C            0.48100813        1.16073035        3.87098740
 C           -0.87510588        0.69302991        3.64471573
 C            1.02624115        2.02310778        2.92635566
 C            2.86490751        0.51901777        2.50158447
 C            2.01536769        1.53288198        2.06252470
 C            3.30098029       -1.76876206        2.15952996
 C            3.36303777       -0.45037581        1.54084930
 C            2.94860898       -2.84766766        1.36568372
 C            0.74394413       -2.83823429        2.42404656
 C            1.67358899       -3.49905199        1.62789102
 C           -1.19724094       -1.35778500        2.38525103
 C           -0.49156587       -2.45601818        1.86606529
 C           -2.13315697       -0.69982179        1.59766335
 C           -1.63695852        1.39630452        2.71349093
 C           -2.25049582        0.69506474        1.65977927
 C            0.16939419        3.00671918        2.45702788
 C           -1.25397304        2.71633769        2.50426211
 C            0.42476849        3.61099111        1.16767102
 C            1.93126482        1.80397553        0.69141087
 C            1.23722189        2.93856004        0.26303070
 C            3.02049803       -0.31174290        0.19755700
 C            2.41290628        0.87101876       -0.24177363
 C            3.04405478       -2.70879465       -0.07198661
 C            3.04600970       -1.43535555       -0.63579077
 C            1.24190000       -4.12174370        0.39812857
 C            2.17699990       -3.72461720       -0.64167186
 C           -0.95953053       -3.08002393        0.69576760
 C           -0.09093861       -3.84229043       -0.08182266
 C           -2.75567717       -1.40540048        0.58581233
 C           -2.10948471       -2.59887499        0.07412877
 C           -3.32784691       -0.68659928       -0.53399477
 C           -2.83027965        1.39473631        0.58402241
 C           -3.27991708        0.70334287       -0.54615079
 C           -1.89236957        3.48340321        1.46343643
 C           -0.84268713        4.15724844        0.71389942
 C           -2.72037816        2.78363438        0.51074666
 C           -1.18271796        4.06282969       -0.69326071
 C           -2.47832295        3.40423956       -0.77784717
 C            1.07551067        3.18153854       -1.09697661
 C           -0.18470679        3.71941910       -1.59574338
 C            2.22413147        1.07845589       -1.61223545
 C            1.55450978        2.20962904       -2.05571609
 C            2.67859384       -1.30425761       -1.97023437
 C            2.29771604       -0.00251218       -2.47915653
 C            1.41018839       -3.39537685       -1.82863994
 C            0.00245432       -3.56573863       -1.50787024
 C            1.79214131       -2.29287899       -2.57219957
 C           -2.13255314       -2.51826543       -1.37821166
 C           -3.01930510       -1.43304044       -1.74691524
 C           -0.94959580       -2.72661711       -2.08482065
 C           -2.78092932       -0.74552366       -2.92469145
 C           -3.40110322        1.37529786       -1.76378994
 C           -2.80791893        2.69120628       -1.91928361
 C           -3.15650928        0.65368574       -2.99882807
 C           -0.53526786        2.99463448       -2.80632027
 C            0.55074693        2.07041011       -3.10237721
 C           -1.85170281        2.60327279       -3.01353335
 C           -2.11226826        1.36371518       -3.72008826
 C            1.23327859       -0.19921691       -3.45102362
 C            0.78140760       -1.57355571       -3.32024921
 C           -0.56900535       -1.82211849       -3.08715748
 C           -1.48931263       -0.89572361       -3.57419808
 C            0.28811711        0.80521208       -3.63279704
 C           -1.02042311        0.43389020       -3.94226907
