   70
C70 / DATE: 7/ 1/2024 / Origin: Program Fullerene / C70 from database
 C            1.49633919        0.22473132        5.08111131
 C            0.70552996       -0.96241362        4.81544127
 C            1.55756869       -1.90306555        4.12711875
 C            2.69569957        0.14266090        4.26264825
 C            2.76819207       -1.19724870        3.72953197
 C            2.66920435        1.25675492        3.33461727
 C            0.73584907        1.37299643        4.62300068
 C            1.59876579        2.14568996        3.75437245
 C           -0.52242632       -0.54755841        4.16331195
 C           -0.52819523        0.90234398        4.08014684
 C           -1.00095117       -1.26094475        3.07300756
 C            1.03439525       -2.55655818        2.94435490
 C           -0.29257579       -2.36459638        2.57040723
 C            2.91327957       -1.36742199        2.29713702
 C            2.03640519       -2.44905344        1.90655544
 C            2.86269171        1.04230649        1.96738008
 C            2.99448823       -0.26220126        1.45773623
 C            2.55834927        2.08949300        1.09216276
 C            0.99049819        2.92209150        2.78416495
 C            1.64583067        3.05879762        1.49623304
 C           -1.02183717        1.51266012        2.92303180
 C           -0.42053444        2.69489273        2.50142140
 C           -1.91062046       -0.61968278        2.24080020
 C           -1.75320563        0.74907134        2.00066653
 C           -2.60665170       -1.40098931        1.33701602
 C           -0.67119704       -2.86736569        1.32397161
 C           -1.97945501       -2.63497019        0.91110688
 C            1.58756286       -2.49663340        0.59457271
 C            0.32996157       -3.04540146        0.36063152
 C            2.82332413       -0.47864019        0.09114061
 C            2.11033094       -1.60258452       -0.34659809
 C            2.79234931        1.92569456       -0.26751491
 C            3.02167472        0.58638416       -0.76953363
 C            1.94775527        2.61986987       -1.23227250
 C            0.62578062        3.50034166        0.56372336
 C           -0.66196559        3.17251300        1.15866025
 C            0.80015723        3.28112026       -0.79953274
 C           -2.08956080        1.28506336        0.74208125
 C           -1.60926231        2.54585380        0.36540369
 C           -3.19230690       -0.78264775        0.16925078
 C           -2.80759293        0.50713442       -0.18079375
 C           -2.36272982       -2.87521659       -0.46807587
 C           -3.27394707       -1.80845379       -0.85506708
 C           -0.00855455       -3.33352557       -0.95415934
 C           -1.40173376       -3.31829441       -1.36468815
 C            1.66411320       -1.69015591       -1.67367582
 C            0.77160205       -2.71083758       -2.00815146
 C            2.51122333        0.51986146       -2.12193389
 C            1.90716817        1.80473114       -2.43724148
 C            1.89073815       -0.63840975       -2.57141301
 C            0.78901673        1.82891206       -3.26436980
 C           -0.34000058        3.25053624       -1.59654623
 C           -1.60885098        2.89750530       -0.97618730
 C           -0.30127493        2.62243657       -2.90775731
 C           -2.93485934        0.91593320       -1.51427481
 C           -2.36408296        2.11282280       -1.92480936
 C           -1.65781367        2.17578110       -3.19581975
 C           -3.34676972       -1.41651356       -2.18203484
 C           -3.34162145        0.00191620       -2.48681426
 C           -1.45282629       -2.87747416       -2.74923608
 C           -0.08759815       -2.58009255       -3.16984906
 C           -2.50720519       -2.07345720       -3.17174438
 C            1.14356387       -0.54571868       -3.74581002
 C            0.59697793        0.74922894       -4.12320770
 C            0.15898221       -1.56048866       -4.07617251
 C           -1.86470082        1.17513343       -4.13382873
 C           -2.85112751        0.14754246       -3.84830995
 C           -2.30065179       -1.13462427       -4.26056984
 C           -0.70779472        0.52771807       -4.72146429
 C           -0.95288727       -0.90528406       -4.74446060
