   70
C70 / DATE: 7/ 1/2024 / Origin: Program Fullerene / C70 from database
 C            1.58701782       -0.02979366        4.66214692
 C            0.77587650       -1.22295527        4.50420365
 C            1.38445814       -2.04624495        3.47706846
 C            2.65074271       -0.08159559        3.67343445
 C            2.55221629       -1.33499333        2.97043014
 C            2.58825011        1.12601122        2.89222862
 C            0.74901163        1.11487308        4.34902609
 C            1.39485788        1.85858900        3.29426808
 C           -0.59723543       -0.80448580        4.32419431
 C           -0.59368261        0.63626825        4.11596770
 C           -1.41691282       -1.58168571        3.51981532
 C            0.56912217       -2.72679981        2.57096100
 C           -0.82063452       -2.58999127        2.64885277
 C            1.13665711       -3.13618648        1.36827627
 C            2.80078007       -1.36757465        1.60279997
 C            2.36901018       -2.50017206        0.93467312
 C            2.88827778        1.07389515        1.53544849
 C            2.97539115       -0.17022705        0.87941428
 C            2.52465258        2.19114053        0.80193519
 C            0.61830233        2.43710221        2.29500792
 C            1.29992052        2.88172793        1.16838444
 C           -1.32412060        1.15664390        3.05141907
 C           -0.73374405        2.08082364        2.16950110
 C           -2.46857822       -0.92689310        2.76352007
 C           -2.46322724        0.46104974        2.64678004
 C           -1.62204926       -2.65181538        1.43010867
 C           -2.72352444       -1.72388500        1.57470594
 C            0.29616437       -3.29381672        0.19105114
 C           -0.98737857       -2.77683731        0.20149722
 C            2.39351179       -2.52596163       -0.50304250
 C            1.13375381       -3.08620312       -0.96495172
 C            3.04162623       -0.21152481       -0.53194337
 C            2.91859899       -1.44878276       -1.19621461
 C            2.60065470        2.15300013       -0.63424268
 C            3.01830682        0.99326596       -1.26444036
 C            0.57062081        3.16569719       -0.05262474
 C            1.44101003        2.85086715       -1.16703502
 C           -1.45127216        2.49197493        1.04031367
 C           -0.76673546        2.82964396       -0.13194191
 C           -3.28432285        1.02792549        1.68308945
 C           -2.80799278        2.20122214        0.98055287
 C           -3.22468396       -1.07826987        0.45491544
 C           -3.84344784        0.15086206        0.67263232
 C           -1.45161515       -2.04635348       -0.89954057
 C           -2.67100603       -1.35938526       -0.80134361
 C            0.58901921       -2.57177907       -2.13147309
 C           -0.70595696       -2.01723585       -2.09910605
 C            2.72869324       -1.48302913       -2.57237009
 C            1.51203975       -2.11314351       -3.06721655
 C            2.86946375        0.97165999       -2.64663549
 C            2.95016980       -0.28697823       -3.34092908
 C            0.89929589        2.39982676       -2.36674750
 C            1.77158583        1.73513189       -3.22743263
 C           -1.32034024        2.55478284       -1.38514962
 C           -0.48899918        2.17543956       -2.45642062
 C           -3.48963231        2.24025265       -0.30090785
 C           -4.21266826        0.98370681       -0.44991935
 C           -2.70170147        2.43152868       -1.50129388
 C           -3.20279499       -0.74655807       -1.92943795
 C           -3.95940501        0.48537106       -1.78194428
 C           -3.23039732        1.52213358       -2.48987573
 C           -1.18667806       -1.30011230       -3.21268695
 C           -1.02179464        1.40238990       -3.50962703
 C           -2.36355046       -0.57060543       -3.09136809
 C           -2.28759647        0.85907269       -3.35283170
 C            1.05140428       -1.36195434       -4.20548767
 C            1.98285813       -0.26769161       -4.42425981
 C            1.23363360        0.97197588       -4.32582033
 C           -0.27795422       -0.80919565       -4.14931266
 C           -0.16532244        0.63486131       -4.28304914
