   70
C70 / DATE: 7/ 1/2024 / Origin: Program Fullerene / C70 from database
 C            1.54669898       -0.11037306        4.76179159
 C            0.72327682       -1.28355550        4.54639901
 C            1.22021240       -1.97510999        3.37158669
 C            2.56482972       -0.09034959        3.72705156
 C            2.34774908       -1.21638065        2.85220660
 C            2.54632148        1.22051251        3.13275140
 C            0.70053056        1.05611935        4.56599228
 C            1.32639494        1.88459261        3.56745946
 C           -0.65657917       -0.84834076        4.54250998
 C           -0.64224596        0.59178930        4.31350628
 C           -1.56736201       -1.60849800        3.82846544
 C            0.29880910       -2.50047467        2.46881345
 C           -1.06080460       -2.51638704        2.80367222
 C            0.66055633       -2.61044592        1.12670180
 C            2.43368201       -1.01918796        1.47849406
 C            1.78005927       -1.91902856        0.65161400
 C            2.88078339        1.35615877        1.79391176
 C            2.82034656        0.22395062        0.95418224
 C            2.56075632        2.58953467        1.25344975
 C            0.54219252        2.49005784        2.58868873
 C            1.25338803        3.13359248        1.58408430
 C           -1.36074060        1.11546317        3.23571263
 C           -0.72044888        1.94148191        2.29106441
 C           -2.70628216       -0.92086862        3.25660237
 C           -2.54880533        0.47860552        2.89979532
 C           -2.05508929       -2.57997433        1.73835657
 C           -3.10376410       -1.64290887        2.06258990
 C           -0.29731462       -3.04133996        0.21466127
 C           -1.61535082       -2.65942980        0.42256557
 C            0.10712335       -3.32965787       -1.07551890
 C            2.00975099       -1.86542099       -0.71536663
 C            1.40589029       -2.84269717       -1.49487612
 C            2.83466605        0.39012486       -0.44613351
 C            2.38352070       -0.64162029       -1.28357769
 C            2.79926395        2.81715895       -0.14493220
 C            3.00058074        1.66163089       -0.98875861
 C            0.60252990        3.45246197        0.33630808
 C            1.64835086        3.53921568       -0.65979447
 C           -1.28313262        2.11285349        1.00603382
 C           -0.57197184        2.79545171        0.00707008
 C           -3.10601324        0.64986115        1.57875620
 C           -3.46191058       -0.66628541        1.06464565
 C           -2.53601811        1.56204745        0.70228958
 C           -2.29012347       -1.96359171       -0.59611718
 C           -3.18684648       -0.93309647       -0.27016659
 C           -0.80975872       -3.02822846       -2.15257337
 C           -1.82559302       -2.09834692       -1.91550579
 C            1.36784878       -2.69198510       -2.93056764
 C           -0.00219019       -2.95275716       -3.35326156
 C            2.12670530       -0.37936323       -2.64413762
 C            1.76493476       -1.42420493       -3.49831995
 C            2.36092015        1.97442962       -2.24719054
 C            1.37645099        3.01179150       -1.97471842
 C            1.98025921        0.94108384       -3.08864108
 C           -0.91369473        2.63721265       -1.34368349
 C            0.06068317        2.76688707       -2.34713406
 C           -2.92862613        1.45927948       -0.62866335
 C           -3.30079827        0.14474573       -1.13045448
 C           -2.16047344        2.11921520       -1.66230392
 C           -2.11275493       -1.10580571       -2.86935979
 C           -2.81593451        0.03010438       -2.48438213
 C           -2.32727065        1.34241108       -2.87753374
 C           -0.34219963       -1.97528632       -4.35580269
 C            0.84427004       -1.16762690       -4.59267583
 C           -1.43666454       -1.06483290       -4.09092693
 C            0.97216996        1.23936307       -4.00220053
 C           -0.10925865        2.10138608       -3.55990558
 C           -1.35903047        1.42511733       -3.86246052
 C            0.40193660        0.19072132       -4.81841265
 C           -1.03939151        0.22704756       -4.62372647
