   70
C70 / DATE: 7/ 1/2024 / Origin: Program Fullerene / C70 from database
 C            1.19904528       -0.18488869        4.89257683
 C            2.38904558       -0.40268940        4.09491112
 C            2.18767281       -1.63229451        3.33962311
 C            0.32864307       -1.33003398        4.67986308
 C            0.80236708       -2.01386870        3.49322647
 C           -1.02961954       -0.84688297        4.69415349
 C            0.40391617        1.01132010        4.67103555
 C           -0.98711629        0.61099943        4.72942868
 C            0.79907956        1.93925935        3.71268713
 C            2.80873394        0.61930454        3.15309727
 C            2.07389768        1.79026524        3.02570584
 C            2.68760513       -1.40798983        2.00251496
 C            3.23769762       -0.06945038        1.95300673
 C            1.93616253       -1.82629504        0.90994308
 C           -0.00739224       -2.06877836        2.35668111
 C            0.58438474       -2.15049647        1.09103010
 C           -1.90232727       -1.20624413        3.59572340
 C           -1.38746922       -1.85054862        2.46460495
 C           -1.90627249        1.08288294        3.70623392
 C           -2.75132788       -0.05222216        3.39598401
 C           -0.17004396        2.44491798        2.74633443
 C           -1.43010957        1.86945670        2.65421139
 C            1.93035893        2.38790242        1.71092320
 C            0.54492511        2.77695729        1.53095444
 C            3.18530047        0.57573846        0.72657514
 C            2.58764629        1.83803276        0.62076214
 C            2.35525072       -1.38519210       -0.34764698
 C            3.15481183       -0.23791716       -0.40195821
 C            1.62951371       -1.77698627       -1.47460223
 C           -0.21905025       -2.32393276       -0.03148253
 C            0.38263036       -2.38301712       -1.28628873
 C           -2.17868193       -1.85611947        1.31032122
 C           -1.61021683       -2.19168082        0.07239945
 C           -3.48218994       -0.00687491        2.23112404
 C           -3.38198251       -1.14494692        1.34468722
 C           -2.07725748        1.81045071        1.41502706
 C           -3.29812731        1.14186675        1.36709857
 C           -0.04769503        2.54614898        0.29178203
 C           -1.35388768        2.04509803        0.22753860
 C            2.15649507        2.23047735       -0.64245685
 C            0.78168758        2.44873938       -0.82948174
 C            3.35454590        0.38891594       -1.62027724
 C            2.90665485        1.76309676       -1.71065931
 C            2.02355723       -1.32495009       -2.74225632
 C            2.93388568       -0.27522924       -2.83308774
 C            1.29446796       -1.68459445       -3.87491265
 C           -0.40182455       -2.72779584       -2.37413080
 C            0.06040412       -2.42314151       -3.71530163
 C           -2.39019340       -2.10446835       -1.09367856
 C           -1.81053281       -2.40227864       -2.32271944
 C           -3.97810196       -0.69544686        0.10971147
 C           -3.85613492        0.75837666        0.09210731
 C           -3.42895997       -1.18153142       -1.12846954
 C           -1.90326286        1.72673204       -1.02799836
 C           -3.14418706        1.10802772       -1.11398659
 C           -3.27893744       -0.03010209       -1.99736419
 C            0.20595644        2.22070584       -2.08286204
 C           -1.07623030        1.67147623       -2.15297132
 C            2.42261237        1.98307149       -3.05407128
 C            2.71602469        0.77910278       -3.80893444
 C            1.01323076        2.25275408       -3.21725338
 C            1.05514962       -0.69340426       -4.91408619
 C            1.65492779        0.61824614       -4.77819390
 C            0.59209640        1.54961823       -4.41264599
 C           -0.99050290       -1.66207682       -4.37862416
 C           -2.03510159       -1.45439014       -3.39949732
 C           -2.38888900       -0.15483507       -3.04859463
 C           -1.45045735        0.86175572       -3.24161870
 C           -0.37813695       -0.49285422       -4.97627893
 C           -0.64816460        0.80475175       -4.37919659
