   70
C70 / DATE: 7/ 1/2024 / Origin: Program Fullerene / C70 from database
 C            1.28087462        0.10922291        5.11917450
 C            0.51238979       -1.06528917        4.73667680
 C            1.41364902       -1.98843811        4.08992974
 C            2.55363839        0.03719060        4.42682509
 C            2.70542286       -1.32551705        3.96633574
 C            2.58928067        1.10833954        3.44145072
 C            0.57909432        1.27713783        4.61937949
 C            1.47074442        1.99311852        3.72821810
 C           -0.64537499       -0.61034188        3.99887176
 C           -0.69708435        0.83651860        4.09027127
 C           -0.97866446       -1.19674922        2.78043575
 C            1.06269409       -2.50373642        2.77500894
 C           -0.08981149       -2.06450356        2.13174198
 C            3.15151984       -1.53317610        2.60837316
 C            2.28931400       -2.54082129        2.01567992
 C            2.91196441        0.80654430        2.11415724
 C            3.49240688       -0.43636720        1.82103526
 C            2.37975192        1.59167479        1.07744242
 C            0.89793991        2.70232402        2.68522265
 C            1.49831414        2.62161554        1.36650678
 C           -1.23874586        1.52594906        3.01205079
 C           -0.54038435        2.61180624        2.48792519
 C           -1.92568666       -0.54592747        2.00803497
 C           -2.08951410        0.83455495        2.15696078
 C           -2.31766388       -1.13414925        0.81453308
 C           -0.17918224       -2.21939562        0.74039555
 C           -1.35601031       -1.83638820        0.08480269
 C            2.22562398       -2.56470844        0.62983289
 C            0.96990134       -2.52796904       -0.00267867
 C            3.80758391       -0.72742831        0.50252649
 C            3.30839611       -1.98595923       -0.01887149
 C            2.54981868        1.20697054       -0.25073178
 C            3.52128450        0.25654075       -0.51861068
 C            1.55238240        1.50046972       -1.20271844
 C            0.46708803        2.94619696        0.39810517
 C           -0.79645397        3.00386034        1.11205481
 C            0.48998353        2.34349174       -0.85959185
 C           -2.68444439        1.53406113        1.11494687
 C           -1.91943439        2.50893066        0.46751710
 C           -3.40366453       -0.57098629        0.16441530
 C           -3.63743932        0.84815190        0.37218232
 C           -3.61778122       -0.85409943       -1.23594969
 C           -1.43124431       -1.88790644       -1.31563585
 C           -2.60441559       -1.46496464       -1.97050442
 C            0.91007512       -2.50229204       -1.40286318
 C           -0.31653064       -2.32038862       -2.05178087
 C            3.28004874       -1.86763277       -1.45020970
 C            3.49186327       -0.46046994       -1.77034432
 C            2.07738714       -2.26799547       -2.13801632
 C            1.55924993        0.88956104       -2.46760779
 C            2.49293418       -0.10830514       -2.75255090
 C            2.00623820       -1.37254052       -3.26842898
 C            0.41461576        0.94631715       -3.27458557
 C           -0.70213591        2.27456342       -1.58634496
 C           -1.91372505        2.52632766       -0.92362002
 C           -0.69647970        1.69319388       -2.85861979
 C           -4.05577789        1.41016280       -0.89530849
 C           -4.30982280        0.29985434       -1.79021824
 C           -3.12280505        2.28982292       -1.56334619
 C           -1.86834875        1.68575352       -3.62119951
 C           -3.95761774        0.74915466       -3.11947987
 C           -3.13298929        1.94458784       -2.96702052
 C           -2.64012259       -1.35283093       -3.36133368
 C           -3.22501971       -0.16614302       -3.96496304
 C           -2.12019822        0.58543431       -4.52846027
 C           -0.27676503       -2.11264619       -3.43254637
 C            0.82907049       -1.34877029       -3.97284700
 C            0.25560293       -0.05308601       -4.24248225
 C           -1.44756273       -1.62000021       -4.12354979
 C           -1.05924601       -0.36148065       -4.75600079
