   70
C70 / DATE: 7/ 1/2024 / Origin: Program Fullerene / C70 from database
 C            1.69603492       -0.06907864        4.59711853
 C            0.84719860       -1.23613027        4.46911260
 C            1.31649020       -2.01722882        3.33620542
 C            2.63872662       -0.08956444        3.49304797
 C            2.34931432       -1.24037382        2.67101929
 C            2.59480494        1.20603100        2.86415663
 C            0.85219793        1.10232424        4.42901754
 C            1.48023304        1.94705087        3.44041619
 C           -0.52892259       -0.77799971        4.45452077
 C           -0.49392878        0.64744197        4.16349477
 C           -1.44878082       -1.56182597        3.78215031
 C            0.36544479       -2.67069904        2.55673270
 C           -0.95091939       -2.69560311        3.02256129
 C            0.60436627       -2.82492696        1.18569143
 C            2.26963855       -1.07686170        1.29369816
 C            1.57081132       -2.02191545        0.56113696
 C            2.77350999        1.29638614        1.48868257
 C            2.58858836        0.15017216        0.69296688
 C            2.47888565        2.53361650        0.94095919
 C            0.67992696        2.67376276        2.56439866
 C            1.35180727        3.26135825        1.49869467
 C           -1.14384405        1.13414220        3.02872935
 C           -0.65849215        2.28320043        2.38879570
 C           -2.41449650       -0.90900006        2.91942886
 C           -2.10979153        0.34326509        2.39603880
 C           -2.01685312       -3.06929059        2.11714257
 C           -2.92624145       -1.93427727        2.02986049
 C           -0.33029648       -3.51404098        0.40344415
 C           -1.67111201       -3.44823830        0.76657770
 C           -0.06766296       -3.69123910       -0.94928885
 C            1.68868674       -2.01845127       -0.81998533
 C            1.11061282       -3.06911742       -1.51546641
 C            2.43691233        0.28391574       -0.70215384
 C            2.02266454       -0.82140921       -1.47054044
 C            2.43518754        2.68164059       -0.48979075
 C            2.53165157        1.55276313       -1.29154812
 C            0.61165350        3.84685337        0.39901462
 C            1.42570769        3.68455357       -0.79319555
 C           -1.40208890        2.81699128        1.33530748
 C           -0.75674711        3.64266471        0.32747055
 C           -2.53816155        0.66936317        1.10718005
 C           -2.36505237        1.96719214        0.65670086
 C           -3.09252730       -1.61946677        0.62252364
 C           -2.58302830       -2.75091978       -0.12377964
 C           -2.78896781       -0.34119411        0.17597547
 C           -1.14598121       -3.39849633       -1.87461921
 C           -2.16571733       -2.55984860       -1.43310899
 C            0.87933687       -2.94580537       -2.93647204
 C           -0.54284781       -3.16881706       -3.16829325
 C            1.86483821       -0.69756022       -2.86324701
 C            1.23770702       -1.70933059       -3.58864773
 C            2.26988947        1.71197169       -2.64592670
 C            1.88656286        0.56810662       -3.44183203
 C            0.81745727        3.64738756       -2.03817109
 C            1.44192544        2.83229404       -3.06409942
 C           -1.37454385        3.34688377       -0.95711501
 C           -2.25493939        2.20809329       -0.77120276
 C           -0.62191639        3.42585105       -2.12060555
 C           -2.41710802       -0.16449864       -1.15949609
 C           -2.27664378       -1.28086657       -1.99517930
 C           -2.17445001        1.12579572       -1.64639863
 C           -1.03790193       -2.06632020       -3.96249540
 C            0.12295505       -1.34720256       -4.44444813
 C           -1.91084760       -1.09475270       -3.32666440
 C            0.77621231        0.97113478       -4.30143560
 C            0.38616402        2.30475590       -3.90265263
 C           -0.85849821        2.45403413       -3.17547468
 C           -1.61842425        1.31114780       -2.91661153
 C           -0.23523689        0.05157993       -4.51804323
 C           -1.48113315        0.21862598       -3.77198346
