   70
C70 / DATE: 7/ 1/2024 / Origin: Program Fullerene / C70 from database
 C            1.22773944        0.13410053        5.39533520
 C            0.52499130       -1.07226814        4.99637368
 C            1.48056150       -1.94305870        4.35583673
 C            2.53973659        0.10932794        4.76596423
 C            2.68973640       -1.17007853        4.10744044
 C            2.67108886        1.31212443        3.97300547
 C            0.50006216        1.26949225        4.85458039
 C            1.44571791        2.08335923        4.13025193
 C           -0.64979481       -0.67977864        4.24260590
 C           -0.65955020        0.76677381        4.13892577
 C           -1.02365295       -1.40271983        3.11471086
 C            1.10237393       -2.55859329        3.10020638
 C           -0.19755071       -2.42601102        2.61629653
 C            2.94221848       -1.21331084        2.67397405
 C            2.18300944       -2.33570866        2.16471121
 C            2.93258526        1.20505024        2.54373730
 C            2.98545582       -0.04040823        1.91636283
 C            1.06748529        2.54836019        2.81398305
 C            2.16457957        2.25789460        1.91530912
 C           -1.01994905        1.32885921        2.91140774
 C           -0.22192233        2.32874369        2.33704389
 C           -1.92766326       -0.79807365        2.24487276
 C           -1.87137406        0.59112597        2.07669780
 C           -2.48291992       -1.58809105        1.25370454
 C           -0.42863472       -2.88355845        1.31508367
 C           -1.70362360       -2.71283708        0.78325239
 C            1.85768772       -2.35504767        0.82080858
 C            0.66961435       -2.97643047        0.45129314
 C            2.68673583       -0.11447795        0.55019623
 C            2.35982550       -1.35294672       -0.00788978
 C            1.85433232        2.14032760        0.57082605
 C            2.34707562        1.05229442       -0.14303077
 C           -0.44345433        2.63852922        1.00156490
 C            0.65729762        2.69667866        0.14179728
 C           -2.31503655        1.17211204        0.88015556
 C           -1.68376350        2.34645270        0.45786003
 C           -3.10870570       -0.96552069        0.10847905
 C           -3.08197966        0.41512575       -0.02093439
 C           -1.92409903       -2.84480210       -0.64728151
 C           -2.82651900       -1.78462190       -1.06025827
 C            0.47756945       -3.21447992       -0.90234183
 C           -0.86236059       -3.18228105       -1.46360179
 C            2.08809663       -1.43430341       -1.37345547
 C            1.35268994       -2.52660927       -1.83312339
 C            2.01554894        0.96498055       -1.49615229
 C            2.11770283       -0.27055057       -2.14040378
 C            0.43077274        2.76282190       -1.22797534
 C            1.22789072        1.97747394       -2.06061025
 C           -1.96179595        2.88117968       -0.79145240
 C           -0.83325055        3.15316624       -1.66175022
 C           -3.41689561        0.94099221       -1.26529463
 C           -3.00429032        2.28536730       -1.59111794
 C           -2.66071150       -1.15609720       -2.29420337
 C           -3.21432290        0.11431525       -2.44842188
 C           -0.77103125       -2.59294874       -2.78810511
 C            0.64374300       -2.43306147       -3.09368793
 C           -1.67447586       -1.60375348       -3.18454159
 C            1.84544645       -0.35464091       -3.50600153
 C            1.02014300       -1.45107999       -3.99346646
 C            0.99307826        1.98174477       -3.43165946
 C            1.44198620        0.84658033       -4.21299422
 C           -1.24409881        2.89231639       -3.03081784
 C           -2.57475679        2.30572527       -2.97968772
 C           -2.78453017        0.97797417       -3.53487355
 C           -0.31909727        2.37254555       -3.92623405
 C           -1.37758957       -0.86156602       -4.32899870
 C           -0.01303668       -0.87740567       -4.83290879
 C            0.37717232        0.48656169       -5.13402512
 C           -1.87961842        0.49515049       -4.46786860
 C           -0.75969576        1.34149310       -4.84948474
