   70
C70 / DATE: 7/ 1/2024 / Origin: Program Fullerene / C70 from database
 C            1.19881588       -0.10364686        4.30877166
 C            2.45498622       -0.52911523        3.73623897
 C            2.42517880       -1.97670154        3.61575890
 C            0.36112479       -1.28049009        4.48525195
 C            1.09439159       -2.42937035        3.99285667
 C           -0.94499422       -0.97969012        3.92404784
 C            0.41543727        0.88679074        3.59733852
 C           -0.96066880        0.43840569        3.59257356
 C            0.91155809        1.47941403        2.44228260
 C            2.84590106        0.01162685        2.44999201
 C            2.10574554        1.03319199        1.86346699
 C            2.95574683       -2.32518073        2.30591020
 C            3.27616723       -1.08898717        1.60891443
 C            2.37925990       -3.36807224        1.59777250
 C            0.43891237       -3.35272919        3.18973008
 C            1.16815606       -3.99179751        2.10713591
 C           -1.56051540       -1.88524081        3.06033812
 C           -0.90836908       -3.07008789        2.70892704
 C           -2.56784949       -1.41343077        2.22305663
 C           -1.79783551        0.88084017        2.57369988
 C           -2.78624946        0.02000499        2.12409870
 C            0.01626068        2.18194107        1.64146344
 C           -1.35110556        1.88298916        1.70970397
 C            0.51050903        2.86086310        0.53208054
 C            2.32016221        1.29556220        0.51415473
 C            1.68473482        2.39319495       -0.05859762
 C            3.06633131       -0.98767457        0.23412914
 C            2.81940138        0.27871826       -0.30918985
 C            2.23830974       -3.24911308        0.15943636
 C            2.72834074       -2.12813993       -0.50454239
 C            0.25159191       -4.17005068        0.99209479
 C           -1.00056545       -3.54582827        1.33495598
 C            0.91629323       -3.73102719       -0.20775992
 C           -2.67494125       -1.95389837        0.87645073
 C           -1.65222828       -2.75334722        0.39654732
 C           -3.39999053        0.27141334        0.83630415
 C           -3.23473009       -0.92885805        0.03153925
 C           -2.20170141        2.34445685        0.69926216
 C           -3.20650275        1.49463940        0.20897686
 C           -0.35631566        3.68592929       -0.17572130
 C           -1.78189270        3.44113263       -0.05605419
 C           -0.06922711        4.03461204       -1.55702831
 C            1.99492580        2.72657581       -1.37111533
 C            1.07810322        3.53614592       -2.15642605
 C            2.77483857        0.43086624       -1.69548021
 C            2.54420148        1.69521611       -2.23217274
 C            2.30376764       -1.96357726       -1.81778042
 C            2.48650018       -0.68526736       -2.47317954
 C            0.20593730       -3.01199304       -1.16306928
 C           -1.01912541       -2.41297190       -0.81516966
 C            0.97235642       -2.44003183       -2.16612170
 C           -2.77742677       -0.78780245       -1.27096175
 C           -1.56763589       -1.40002606       -1.63340132
 C           -3.52635615        1.52524399       -1.14482711
 C           -3.19865539        0.35551224       -1.94376152
 C           -2.38922160        3.71439860       -1.34647467
 C           -1.32411682        3.99990038       -2.29337437
 C           -3.24049436        2.70489558       -1.92964587
 C           -2.47061339        0.81823987       -3.10349055
 C           -1.46467516        3.08842383       -3.42059308
 C           -2.63268160        2.26277765       -3.17441623
 C            0.97447902        2.93326099       -3.47401862
 C            1.87563605        1.79515034       -3.51860277
 C           -0.32662694        2.48894258       -3.94355035
 C            1.45293567       -0.59711065       -3.49237040
 C            0.38060410       -1.47384984       -3.06009506
 C           -0.85406534       -0.92457822       -2.74741223
 C           -1.23188780        0.26296119       -3.37960217
 C            1.12600172        0.64881741       -3.99800322
 C           -0.27433848        1.03663097       -4.04125278
