   70
C70 / DATE: 7/ 1/2024 / Origin: Program Fullerene / C70 from database
 C            1.20182934        0.10474395        4.34741022
 C            2.51242593       -0.16851437        3.80210720
 C            2.58147419       -1.59399799        3.54645780
 C            0.39227077       -1.09670119        4.19450676
 C            1.22626678       -2.11496723        3.59110588
 C           -0.83540117       -0.71693959        3.52251814
 C            0.44676683        1.20111289        3.78377279
 C           -0.90642181        0.72909795        3.55360807
 C            1.02451112        2.01129853        2.81122155
 C            2.91184734        0.51620607        2.58481612
 C            2.09092483        1.50870400        2.05285635
 C            3.34347079       -1.78608080        2.32868949
 C            3.48351327       -0.47817163        1.69256330
 C            3.02193778       -2.87768795        1.53630499
 C            0.75438517       -2.81731725        2.48574465
 C            1.69169066       -3.45678248        1.67263768
 C           -1.19562199       -1.37322959        2.35393824
 C           -0.52216039       -2.53967195        1.97877016
 C           -2.01748318       -0.71345882        1.43485225
 C           -1.65663078        1.38497551        2.58613137
 C           -2.36781685        0.62583389        1.65376842
 C            0.18385417        2.95264889        2.23302093
 C           -1.24168401        2.66578855        2.22722429
 C            0.51290603        3.50309043        0.93423647
 C            2.13732636        1.75512920        0.67788928
 C            1.47455491        2.86750561        0.15577256
 C            3.28369932       -0.35382660        0.31711550
 C            2.65381351        0.78499570       -0.19068409
 C            3.31190188       -2.79870952        0.12058006
 C            3.38218157       -1.48663984       -0.49238708
 C            1.29522905       -3.97597501        0.37489199
 C            2.30119397       -3.56552531       -0.58709411
 C           -0.98973505       -3.26053618        0.88729747
 C           -0.03789580       -3.91384443        0.00303581
 C           -2.48803075       -1.39534081        0.30631773
 C           -2.03681517       -2.68958202        0.05454091
 C           -3.15389192       -0.70193538       -0.70882294
 C           -3.15621838        1.29121057        0.72027544
 C           -3.55614806        0.61203081       -0.49616065
 C           -1.82345009        3.31491898        1.06569049
 C           -0.73693191        3.94156104        0.32773570
 C           -2.84311740        2.67069263        0.37987469
 C           -0.81450431        4.05790203       -1.05369650
 C            1.48182678        3.08174985       -1.21977341
 C            0.38107155        3.80546347       -1.83522532
 C            2.28984710        0.80438482       -1.53622637
 C            1.82986550        1.98173367       -2.09761642
 C            2.62133125       -1.54347058       -1.73083080
 C            1.88725973       -2.79310871       -1.74625226
 C            1.98395427       -0.39301791       -2.16841985
 C           -0.37291872       -3.50625233       -1.35067449
 C           -1.76246849       -3.08828044       -1.31595674
 C            0.54421734       -2.76328374       -2.09832179
 C           -3.13728558       -1.20389023       -2.00971049
 C           -2.23053550       -2.28547231       -2.34021162
 C           -3.08782574       -0.27784290       -3.12696268
 C           -3.49786266        1.57608006       -1.58868358
 C           -2.94390532        2.81261820       -1.06329675
 C           -1.94492980        3.47992522       -1.76750953
 C           -3.13677861        1.14768120       -2.85938814
 C           -0.00891618        3.09020941       -3.03839214
 C            0.82238119        1.90281166       -3.14076233
 C           -1.45188174        2.93266838       -3.02434831
 C           -1.98997195        1.75150721       -3.51976416
 C            0.79067486       -0.49443871       -2.88968491
 C            0.07721348       -1.70470638       -2.87819036
 C           -1.25914205       -1.72926786       -3.26301883
 C           -1.85706137       -0.55293803       -3.85496897
 C            0.22103303        0.67498216       -3.41536314
 C           -1.08920890        0.67014355       -3.89088199
