   70
C70 / DATE: 7/ 1/2024 / Origin: Program Fullerene / C70 from database
 C            1.38125033        0.02075488        4.99566317
 C            0.58678980       -1.16455766        4.72941660
 C            1.42038699       -2.09769402        4.01018428
 C            2.59782738       -0.07993063        4.20591175
 C            2.65896502       -1.41323687        3.66069876
 C            2.61936081        1.03661934        3.28541430
 C            0.63409391        1.17001716        4.51303327
 C            1.47490110        1.88594708        3.58188611
 C           -0.65195036       -0.73819683        4.11153095
 C           -0.65137025        0.71048279        4.03546334
 C           -1.16462366       -1.43560397        3.02472995
 C            0.89739278       -2.69177154        2.79454414
 C           -0.40486613       -2.42821026        2.38335551
 C            2.84827199       -1.56765328        2.23116498
 C            1.94283982       -2.61590747        1.80095748
 C            2.97170364        0.84627693        1.94702287
 C            3.00949608       -0.45011640        1.40278807
 C            2.75956596        1.92841526        1.10151949
 C            0.87330982        2.54647142        2.51841828
 C            1.69407682        2.85647430        1.43933960
 C           -1.18002993        1.30159397        2.89054285
 C           -0.50057080        2.37213446        2.29562674
 C           -2.17177541       -0.81489758        2.29812299
 C           -2.10906233        0.57712279        2.13441684
 C           -2.84227087       -1.59259033        1.36952161
 C           -0.75374494       -2.79434847        1.07924664
 C           -2.07392701       -2.60993102        0.68149407
 C            1.58166833       -2.63045297        0.46566434
 C            0.25303687       -2.88344141        0.10716504
 C            2.82849439       -0.64311164        0.02364482
 C            2.36255930       -1.88977483       -0.40694263
 C            2.73556359        1.73539716       -0.33258261
 C            2.76904292        0.45124343       -0.84988206
 C            1.11248248        3.34435211        0.20490996
 C            1.79407680        2.68520486       -0.89673377
 C           -1.09321290        3.01192836        1.21153599
 C           -0.25747824        3.52656438        0.13785971
 C           -2.74496798        1.19980113        1.05210254
 C           -2.28188522        2.43181335        0.60843549
 C           -3.71162899       -0.95510640        0.41055900
 C           -3.58069347        0.47127830        0.21259296
 C           -2.39085397       -2.51930471       -0.73151839
 C           -3.50751953       -1.60902862       -0.87008354
 C           -0.07486936       -2.85034925       -1.25466987
 C           -1.35372709       -2.44431778       -1.64926471
 C            2.19888967       -2.12989359       -1.75951476
 C            0.97369868       -2.79004893       -2.17086060
 C            2.35175513        0.25648104       -2.16869466
 C            2.40582636       -1.03654632       -2.67798102
 C            1.07485023        2.30967310       -2.02568428
 C            1.53060355        1.22109221       -2.77505280
 C           -0.93811777        3.27607769       -1.11785221
 C           -2.24166331        2.70529969       -0.82095273
 C           -0.22986176        2.78803650       -2.20934025
 C           -3.53620680        0.71431238       -1.22190525
 C           -3.42834715       -0.58001318       -1.88301786
 C           -2.80338613        1.79529743       -1.71858906
 C           -1.53390456       -1.72142292       -2.83889785
 C           -2.51299275       -0.71706204       -2.91659882
 C            0.70835218       -2.39071452       -3.53951338
 C            1.69453339       -1.37869972       -3.89343308
 C           -0.59667343       -1.85486801       -3.86195783
 C            0.98443228        0.99925681       -4.03775596
 C            1.00895704       -0.33075440       -4.61235871
 C           -0.37304327       -0.75129847       -4.77764427
 C           -0.97864187        2.32250841       -3.28225390
 C           -2.26963958        1.70800999       -3.00735423
 C           -2.27121505        0.42015091       -3.67786207
 C           -0.32558769        1.54519941       -4.31874746
 C           -1.19874591        0.42956699       -4.65098388
