   70
C70 / DATE: 7/ 1/2024 / Origin: Program Fullerene / C70 from database
 C            1.35499305        0.18232590        4.74889976
 C            0.61898846       -1.05624919        4.56575861
 C            1.42925532       -1.93635937        3.74083214
 C            2.60758314        0.05419043        4.02925559
 C            2.75326724       -1.33794209        3.65131301
 C            2.63641832        1.05245263        2.97087373
 C            0.59119036        1.23839086        4.11459683
 C            1.38451132        1.78428944        3.02857003
 C           -0.71217527       -0.71385652        4.10604533
 C           -0.72192977        0.70892238        3.79640316
 C           -1.33965055       -1.57929489        3.22404827
 C            0.85447598       -2.52282180        2.60766314
 C           -0.53375207       -2.55017337        2.49175949
 C            1.65012936       -2.78695039        1.48626521
 C            3.51507144       -1.61014419        2.53159303
 C            3.03043070       -2.60866868        1.60554511
 C            3.15607217        0.67662800        1.73167313
 C            3.91780593       -0.49052053        1.69590529
 C            2.54381408        1.14574671        0.55516931
 C            0.73805360        2.08742934        1.84265404
 C            1.44168711        2.00665173        0.64549980
 C           -1.32943348        1.13125347        2.61724432
 C           -0.65348287        2.04293512        1.80379372
 C           -2.30392064       -1.03446952        2.28748559
 C           -2.32275176        0.33659590        2.04436462
 C           -1.13476378       -2.71927813        1.18153771
 C           -2.35417249       -1.93422970        1.15289265
 C            1.05642233       -2.91416964        0.21565899
 C           -0.31919069       -2.73157054        0.05978661
 C            1.84196036       -3.00854983       -0.92938357
 C            3.84759761       -2.44316048        0.42265352
 C            4.29863672       -1.05594327        0.42215045
 C            3.25764831       -2.70873492       -0.86544450
 C            2.89941660        0.61956806       -0.69564666
 C            3.79511171       -0.44306393       -0.78414918
 C            3.47369770       -1.52814280       -1.68271093
 C            2.09861261        0.90689615       -1.80249927
 C            0.80842214        2.45926599       -0.51406299
 C            1.27832652        2.03085939       -1.75872097
 C           -1.28884108        2.50522160        0.66031892
 C           -0.49832858        2.94739715       -0.39885456
 C           -2.92967906        0.78523403        0.87266540
 C           -2.57542806        2.04470730        0.39696449
 C           -2.78550398       -1.41609250       -0.05670634
 C           -3.39724314       -0.16515558       -0.03700600
 C           -0.84440405       -2.31355739       -1.17170361
 C           -2.16177263       -1.83885723       -1.23158944
 C            1.35478542       -2.40330763       -2.15163236
 C            2.30753185       -1.37575238       -2.52058569
 C            1.79610304       -0.10526936       -2.72644792
 C            0.00961336       -2.07187164       -2.25437752
 C            0.57669031       -0.03471227       -3.38855017
 C           -0.33780337       -1.07114507       -3.16254375
 C            0.54668053        2.33670314       -2.90375255
 C            0.12519975        1.22987758       -3.73943516
 C           -1.11759100        3.52456365       -1.50123247
 C           -0.56025337        3.26698746       -2.81013215
 C           -3.27426282        2.57642605       -0.68027740
 C           -2.56368713        3.43189158       -1.61351295
 C           -4.05667243        0.26477580       -1.18190629
 C           -4.12593842        1.69044476       -1.45166543
 C           -2.64479842       -1.35108658       -2.44615155
 C           -1.68698489       -0.88732565       -3.43321730
 C           -3.75178750       -0.40790707       -2.42994131
 C           -1.26507454        1.43527529       -4.09737026
 C           -1.63120302        2.77514034       -3.66263392
 C           -2.88401496        2.99008941       -2.96209277
 C           -3.83407267        1.89825538       -2.86083796
 C           -2.15955304        0.38009845       -3.96383893
 C           -3.49608295        0.60884366       -3.43722719
