   70
C70 / DATE: 7/ 1/2024 / Origin: Program Fullerene / C70 from database
 C            1.51833846       -0.00837313        4.61629485
 C            0.71946196       -1.21397520        4.51578227
 C            1.22940113       -2.00796442        3.41173820
 C            2.56517829       -0.09343345        3.61733683
 C            2.42260240       -1.34531404        2.90832582
 C            2.51678445        1.11783193        2.83663091
 C            0.66290551        1.11335496        4.26003622
 C            1.25808711        1.78080123        3.12797846
 C           -0.66549736       -0.80509874        4.47182919
 C           -0.68091847        0.61195899        4.12046378
 C           -1.55914158       -1.64046256        3.82454252
 C            0.32218517       -2.55618691        2.50149385
 C           -1.04010261       -2.56941742        2.82232751
 C            0.71521556       -2.72448630        1.16832994
 C            2.64710287       -1.35101507        1.53897291
 C            1.99484075       -2.31042165        0.78114314
 C            2.88792656        1.05609415        1.50615405
 C            3.10946211       -0.18969379        0.90324923
 C            2.43940068        2.08290915        0.70070796
 C            0.45983984        2.16293317        2.04876245
 C            1.11987447        2.51721347        0.87513736
 C           -1.46183185        1.03156475        3.04322463
 C           -0.87627951        1.73529893        1.97099779
 C           -2.74471269       -1.03016127        3.26351039
 C           -2.65795845        0.35753650        2.84303430
 C           -2.02278817       -2.65959735        1.75241290
 C           -3.13582671       -1.81472862        2.10954132
 C           -0.25426805       -2.99135287        0.19458538
 C           -1.57874612       -2.65472750        0.43686565
 C            0.12873551       -3.26571350       -1.10699843
 C            2.41874914       -2.49844321       -0.52381807
 C            1.52349486       -3.12954047       -1.46974077
 C            3.36165495       -0.22730688       -0.48067098
 C            3.08088777       -1.39482032       -1.19626845
 C            3.04241673        2.20277663       -0.53389370
 C            3.45463686        0.97578961       -1.18949501
 C            2.43978923        3.06983844       -1.52019663
 C            0.37629309        2.93078886       -0.22595365
 C            1.05694516        3.45055982       -1.32662778
 C           -1.59220773        1.92094327        0.76888908
 C           -0.95799010        2.51679110       -0.34063688
 C           -3.32476028        0.45740564        1.57012170
 C           -3.61996035       -0.89355647        1.11414487
 C           -2.87639848        1.37173235        0.62736019
 C           -2.33387443       -2.02979985       -0.57285290
 C           -3.39435568       -1.16853360       -0.22559281
 C           -0.66804654       -2.72329768       -2.18984033
 C           -1.87722852       -2.08968683       -1.90508992
 C            1.59388516       -2.38937828       -2.71789463
 C            2.51121470       -1.28949159       -2.53368394
 C            0.24434554       -2.09264716       -3.13415696
 C            2.94300988        1.03390921       -2.54947481
 C            2.53734986        2.40044951       -2.80576810
 C            2.18042764       -0.03121549       -3.02100269
 C            0.43834222        3.41694434       -2.62974622
 C            1.29922143        2.63306639       -3.50709690
 C           -1.61412252        2.58522438       -1.58402167
 C           -0.89030729        2.87033171       -2.73864044
 C           -3.40714691        1.21785086       -0.64583642
 C           -3.72182352       -0.13287074       -1.08489317
 C           -2.81483826        1.91533227       -1.75877086
 C           -2.36210739       -1.18991425       -2.85425708
 C           -3.38562760       -0.24435258       -2.47951107
 C           -2.97040977        1.07019169       -2.93246622
 C           -0.06121751       -0.82267708       -3.60972660
 C            0.90505953        0.19800752       -3.57595060
 C            0.52640420        1.48988846       -3.95090779
 C           -0.85908142        1.88232317       -3.80679014
 C           -1.41271072       -0.49469134       -3.71229023
 C           -1.82918422        0.89670517       -3.81136284
