   70
C70 / DATE: 7/ 1/2024 / Origin: Program Fullerene / C70 from database
 C            1.16250627        0.17885742        4.85680901
 C            2.46343082        0.03101918        4.24250197
 C            2.54773165       -1.32703900        3.74138632
 C            0.36674352       -0.98995307        4.49753384
 C            1.19799706       -1.86372533        3.70299768
 C           -0.87679675       -0.52150848        3.93137686
 C            0.38282790        1.35429440        4.53744329
 C           -0.95060815        0.90072680        4.19021820
 C            0.82766391        2.23827652        3.47034845
 C            2.83988838        0.91729935        3.15339779
 C            2.01677063        1.98427428        2.78348189
 C            3.30343412       -1.29587139        2.50296481
 C            3.45118031        0.09933193        2.11394309
 C            2.96922246       -2.21550943        1.52717984
 C            0.72166645       -2.35935716        2.49158510
 C            1.66637080       -2.86223499        1.60590475
 C           -1.27768887       -0.97736768        2.67873211
 C           -0.52343491       -1.93881858        1.99459634
 C           -2.19172510       -0.20809176        1.96126387
 C           -1.43305626        1.75041232        3.12392719
 C           -0.35709916        2.63678078        2.72173453
 C           -2.18512418        1.18242363        2.11532388
 C           -0.23573597        2.96585313        1.36869070
 C            2.17979253        2.53310878        1.51649574
 C            1.04017303        3.14496021        0.84861049
 C            3.29199879        0.47632899        0.77841230
 C            2.92891003        1.78958103        0.51520895
 C            3.15303970       -1.84648410        0.14161921
 C            3.12487072       -0.49832076       -0.21417476
 C            1.27388805       -3.19730263        0.25480216
 C            2.36227140       -2.79190084       -0.61736925
 C           -0.92191937       -2.30482631        0.69981845
 C           -0.03031643       -2.96423115       -0.15772016
 C           -2.76331361       -0.74154748        0.80641457
 C           -2.14146487       -1.83422583        0.19609208
 C           -3.60054931        0.08761465        0.05604042
 C           -2.38789994        1.95210909        0.98720826
 C           -1.29884172        2.68423754        0.49581622
 C           -3.37649823        1.51872887        0.12439213
 C           -1.12294282        2.83129986       -0.89102965
 C            1.25425700        3.01843230       -0.57852580
 C            2.39717124        2.14049662       -0.78351773
 C            0.16515097        2.89840477       -1.43064109
 C            2.67530675       -0.14354255       -1.49610527
 C            2.33118274        1.18259083       -1.78685418
 C            2.06492426       -2.48720722       -1.93084173
 C            2.38117088       -1.15494609       -2.41567623
 C           -0.30077544       -3.01802813       -1.52432585
 C            0.74116653       -2.80987661       -2.43084515
 C           -2.57351485       -2.26894420       -1.05689577
 C           -1.61201850       -2.87816678       -1.95605744
 C           -3.92780741       -0.24497161       -1.31763957
 C           -3.45984794       -1.43370113       -1.85321803
 C           -3.41770841        2.05012637       -1.21613039
 C           -2.20904929        2.64148027       -1.74644044
 C           -3.82975615        0.97684312       -2.10420499
 C           -1.99319154        2.07630662       -3.06896380
 C           -2.96202531        1.00725306       -3.26899651
 C            0.40642330        2.38572986       -2.70327730
 C            1.52010309        1.46898752       -2.88403571
 C           -0.69471969        1.92830554       -3.53168764
 C            1.49287866       -0.88888850       -3.53595504
 C            0.52337177       -1.97401000       -3.59936816
 C            1.08924515        0.41278824       -3.78160625
 C           -0.28579124        0.68730563       -4.17245995
 C           -1.86262604       -2.37163560       -3.29551785
 C           -2.97626969       -1.44463470       -3.22419495
 C           -2.56275693       -0.19475687       -3.84313201
 C           -0.77866279       -1.72231390       -4.01057258
 C           -1.19319403       -0.35862967       -4.30629122
