   70
C70 / DATE: 7/ 1/2024 / Origin: Program Fullerene / C70 from database
 C            1.39573902        0.12642168        4.72058162
 C            0.63944948       -1.10644155        4.60049717
 C            1.50772476       -2.10449681        4.00444706
 C            2.63563192       -0.04541368        3.98584324
 C            2.76725954       -1.45327796        3.66173744
 C            2.65893776        0.92194022        2.89827262
 C            0.63686839        1.17059429        4.06078791
 C            1.45914799        1.73095428        3.00595373
 C           -0.62377066       -0.79874303        3.94747477
 C           -0.65678553        0.62818061        3.68934989
 C           -1.10969771       -1.65805085        2.96718651
 C            0.94595305       -3.02383860        3.12743158
 C           -0.44351634       -2.86280105        2.72200099
 C            1.69347695       -3.46481922        1.95900605
 C            3.41051179       -1.78662646        2.47791309
 C            2.94309942       -2.92051340        1.69643655
 C            3.08625016        0.50597158        1.63634518
 C            3.73735457       -0.72457661        1.53774475
 C            2.54159341        1.11320801        0.48986203
 C            0.82706437        2.12024135        1.83800080
 C            1.53828882        2.07908614        0.64449586
 C           -1.22324155        1.06589265        2.49924651
 C           -0.56229297        2.05561203        1.77609354
 C           -1.99764427       -1.15978586        2.00936088
 C           -2.09947876        0.22442465        1.81504229
 C           -2.46492419       -2.02388794        1.02808414
 C           -0.58825966       -3.51539509        1.43114208
 C            0.74380265       -3.64717468        0.86779397
 C           -1.62268534       -3.12460629        0.60227814
 C            1.01634658       -3.11877478       -0.39712038
 C            3.32733569       -2.68076794        0.31796880
 C            3.90083518       -1.34427979        0.24429385
 C            2.32173533       -2.78130903       -0.72724913
 C            2.80370303        0.59237258       -0.78733780
 C            3.33001182       -0.69011221       -0.90832042
 C            2.54340646       -1.67282712       -1.62608615
 C            2.06084182        1.06537796       -1.86923494
 C            0.93771072        2.64603084       -0.47913347
 C            1.39993186        2.28290101       -1.74164639
 C           -1.17740563        2.55472134        0.63976446
 C           -0.36943196        3.11775939       -0.34340511
 C           -2.74822723        0.73781726        0.68314511
 C           -2.41771154        2.03733136        0.27649154
 C           -3.07354696       -1.47968284       -0.16320004
 C           -3.38296596       -0.13111034       -0.21720492
 C           -1.34057070       -2.90849889       -0.80500885
 C           -0.03327051       -2.66463056       -1.20409328
 C           -2.40182787       -2.06772770       -1.31259463
 C            1.48950573       -1.19021219       -2.38001373
 C            1.58280621        0.12744585       -2.79132761
 C            0.21029361       -1.73573521       -2.22666253
 C            0.71426147        0.53389001       -3.78584366
 C            0.80034696        2.83531681       -2.87201793
 C            0.50730398        1.95230131       -3.98323169
 C           -0.97316148        3.77996320       -1.40373489
 C           -0.34148524        3.71669554       -2.70531301
 C           -3.10077389        2.63050008       -0.78050056
 C           -2.40339496        3.61377718       -1.59522079
 C           -3.75333314        0.34863518       -1.46792127
 C           -3.84575189        1.77586684       -1.67537265
 C           -2.17217281       -1.25593008       -2.41617005
 C           -0.86318332       -1.12291322       -2.90240357
 C           -0.57541062       -0.13048571       -3.84857618
 C           -3.09642438       -0.23230761       -2.62947479
 C           -0.87870643        2.14748538       -4.36559636
 C           -1.35503204        3.33289565       -3.67708166
 C           -2.63276190        3.28386419       -2.99332997
 C           -3.40690421        2.05662040       -3.03227156
 C           -1.56918290        0.87716076       -4.18445145
 C           -2.80959595        0.83849669       -3.56392272
