   70
C70 / DATE: 7/ 1/2024 / Origin: Program Fullerene / C70 from database
 C            0.93702767       -0.04230259        5.05800279
 C            2.24538622       -0.30311989        4.48587586
 C            2.23075035       -1.66163933        3.97297805
 C            0.11925548       -1.22839238        4.84558613
 C            0.84835139       -2.10321502        3.95154307
 C           -1.20010210       -0.79237235        4.45982992
 C            0.17466473        1.10286181        4.59320871
 C           -1.19427152        0.66280560        4.41124027
 C            0.73106738        1.97464125        3.66418853
 C            2.74145060        0.55716663        3.42647020
 C            2.05060221        1.71400411        3.09806899
 C            2.96935077       -1.67532368        2.72607270
 C            3.24448309       -0.29319370        2.36042897
 C            2.53785305       -2.53737856        1.73110161
 C            0.29330662       -2.49746583        2.73017377
 C            1.15938813       -3.01031162        1.76911889
 C           -1.74624646       -1.25872895        3.20182340
 C           -0.97910284       -2.04674920        2.33985751
 C           -1.91453284        1.05802736        3.21177455
 C           -2.48460962       -0.14579682        2.64063805
 C           -0.10001611        2.52847711        2.60457665
 C           -1.36818009        2.00084143        2.34516165
 C            2.03149050        2.15544328        1.71524032
 C            0.77657927        2.83987493        1.48611637
 C            3.09646609        0.09228518        1.02598897
 C            2.52807513        1.33557717        0.70963246
 C            2.82676275       -2.19644386        0.35325280
 C            3.19115330       -0.89050845        0.03701530
 C            0.70950634       -3.16297113        0.39935940
 C            1.83042600       -2.86079744       -0.46815151
 C           -1.37282307       -2.10974515        0.99440603
 C           -0.54447944       -2.70491485        0.03415889
 C           -2.73772170       -0.16109742        1.28127092
 C           -2.45476109       -1.32440520        0.58011263
 C           -1.85881499        2.05951848        1.03879466
 C           -2.70956504        1.04447421        0.58632818
 C            0.23696062        2.83116691        0.20882821
 C           -1.14584082        2.79971175        0.10023368
 C            2.15813393        1.60863757       -0.60817518
 C            1.00387872        2.36038984       -0.86315572
 C            3.13215324       -0.51110037       -1.29719677
 C            2.71152857        0.83854386       -1.61634447
 C            1.57272635       -2.34636817       -1.73167198
 C            2.45403990       -1.39169623       -2.23180330
 C           -0.80520745       -2.50596220       -1.32245016
 C            0.26423791       -2.37563736       -2.22145214
 C           -2.89439343       -1.40095003       -0.73276227
 C           -2.08594937       -2.11834665       -1.69583797
 C           -3.11729508        1.04686987       -0.74953671
 C           -3.35619561       -0.18011322       -1.37511361
 C           -1.70225568        2.99058267       -1.15120581
 C           -2.84038585        2.17278948       -1.52028373
 C            0.44931429        2.40665794       -2.15139419
 C           -0.80996530        2.99553233       -2.29247385
 C            2.08390677        0.80660928       -2.92289697
 C            2.05365221       -0.58240866       -3.36447261
 C            0.99001977        1.62547476       -3.18671844
 C            0.03467820       -1.93486424       -3.52690427
 C            0.98217903       -1.00963524       -4.13177742
 C           -2.32274711       -1.52908605       -3.00125985
 C           -3.14147777       -0.33685473       -2.80675574
 C           -1.30088604       -1.53597250       -3.93891177
 C           -2.85279194        2.08705294       -2.97156106
 C           -1.63094783        2.71596219       -3.45271591
 C           -2.95590714        0.78692742       -3.60382400
 C            0.24944943        1.35728579       -4.34210377
 C            0.22041900       -0.00387226       -4.84497849
 C           -1.16795869       -0.42896227       -4.86915708
 C           -1.08862183        1.88704305       -4.50077357
 C           -1.98662114        0.75546738       -4.68463878
