   70
C70 / DATE: 7/ 1/2024 / Origin: Program Fullerene / C70 from database
 C            1.54901465        0.00494684        4.82572089
 C            0.76476366       -1.19499982        4.59746334
 C            1.48441308       -2.03457294        3.65727804
 C            2.71901979       -0.05888883        3.96897144
 C            2.69784203       -1.32914344        3.26704524
 C            2.76574671        1.15870252        3.18617749
 C            0.75130470        1.13789045        4.39326675
 C            1.50352707        1.85625810        3.37893748
 C           -0.58482794       -0.78915865        4.26371613
 C           -0.57230643        0.64945968        4.04651156
 C           -1.30673849       -1.58422267        3.38926526
 C            0.77141916       -2.73305149        2.68473492
 C           -0.62275588       -2.64165454        2.65318586
 C            1.45212159       -3.14657603        1.54433395
 C            3.10361361       -1.37721004        1.93471516
 C            2.66451718       -2.44173241        1.15443372
 C            3.29668250        1.09198378        1.90884315
 C            3.55613705       -0.21224693        1.30929384
 C            2.73590996        1.93779153        0.87164855
 C            0.81398396        2.33772101        2.26861863
 C            1.49247155        2.53270467        1.06071977
 C           -1.18888153        1.17332398        2.91272116
 C           -0.57768937        2.24300227        2.25844799
 C           -2.23450213       -0.95176316        2.47008390
 C           -2.14813727        0.41624197        2.23151264
 C           -1.33744634       -2.82849950        1.39652575
 C           -2.40251437       -1.84369005        1.34105510
 C            0.71569088       -3.46005545        0.33029287
 C           -0.63257318       -3.12306242        0.23465010
 C            2.66108746       -2.32909698       -0.29532528
 C            1.60475040       -3.19654642       -0.78850079
 C            3.42310568       -0.06094805       -0.13441566
 C            3.01671349        1.30678640       -0.40170707
 C            2.86910605       -1.08736822       -0.89144936
 C            2.15633850        1.54859041       -1.45991329
 C            0.77516156        2.95240351       -0.06195294
 C            1.20353783        2.56108323       -1.33513613
 C           -1.27799838        2.89289903        1.25563891
 C           -0.53496370        3.38888732        0.11537835
 C           -2.70961874        0.92650753        1.05871952
 C           -2.47484929        2.26112388        0.73922812
 C           -2.73630195       -1.29576579        0.11350541
 C           -3.12805469        0.04287456        0.05785527
 C           -1.16451608       -2.74727926       -1.00279328
 C           -2.30125728       -1.93343180       -1.04771201
 C            1.05317099       -2.93403125       -2.02912634
 C           -0.39109184       -2.91358565       -2.15126174
 C            2.21996090       -0.77971496       -2.09120437
 C            1.98393062        0.55778254       -2.42577357
 C            1.54191713       -1.78984557       -2.77290070
 C            1.28483679        0.86728059       -3.58953522
 C            0.46234206        2.92962347       -2.45470817
 C            0.58835238        2.13841593       -3.66525650
 C           -1.44773003        3.43205589       -1.01544239
 C           -2.66051627        2.72699057       -0.62542204
 C           -0.93908022        3.27727097       -2.29683506
 C           -3.63767838        0.54604654       -1.13618433
 C           -3.30455521        1.90208051       -1.53612370
 C           -2.79926262       -1.50701923       -2.27614102
 C           -3.58846193       -0.28978490       -2.32203917
 C           -0.70118445       -2.15113522       -3.34946788
 C            0.51237964       -1.44563446       -3.73973892
 C            0.43475340       -0.13965518       -4.20016887
 C           -1.93002278       -1.51441258       -3.43967264
 C           -0.74780948        1.88976674       -4.18282171
 C           -1.69860243        2.53677590       -3.29269247
 C           -2.85725435        1.86319526       -2.92008725
 C           -3.10101594        0.52173403       -3.42606688
 C           -0.86540634        0.46456916       -4.44776142
 C           -2.02401872       -0.20898690       -4.07515807
