   70
C70 / DATE: 7/ 1/2024 / Origin: Program Fullerene / C70 from database
 C            1.21898690       -0.27885814        4.39589063
 C            2.50539922       -0.62419772        3.83521594
 C            2.40290216       -1.95357699        3.25760343
 C            0.36938908       -1.45473129        4.31346910
 C            1.08764806       -2.47984749        3.57992235
 C           -0.93128137       -1.02910156        3.82874610
 C            0.49295200        0.84057550        3.81967029
 C           -0.86863422        0.40287044        3.57072276
 C            1.11234283        1.65731710        2.87947968
 C            3.05649959        0.24638938        2.82131061
 C            2.47751410        1.48733800        2.59381244
 C            2.80322771       -1.86467808        1.85966767
 C            3.38662200       -0.55697446        1.65696824
 C            1.96776087       -2.39207437        0.88608131
 C            0.40736091       -3.19453627        2.60632199
 C            0.98759570       -3.29686176        1.27651519
 C           -1.63206740       -1.83633855        2.93660890
 C           -1.02319661       -2.98443597        2.42852129
 C           -2.67587492       -1.25441449        2.22618193
 C           -1.57159297        0.91559970        2.48155205
 C           -2.66385235        0.18779247        2.02733615
 C            0.30065538        2.35409655        1.98098957
 C           -0.94339296        1.82651480        1.62302237
 C            0.86259276        3.36788435        1.22018570
 C            3.01805450        2.20278575        1.53556684
 C            2.29643942        3.35212071        1.03828769
 C            3.29825359        0.05378491        0.40986613
 C            3.47171151        1.43469377        0.38356708
 C            1.85022629       -1.75125186       -0.34983650
 C            2.52957105       -0.54462249       -0.59607229
 C            0.99965653       -2.29108384       -1.32224627
 C           -0.09060450       -3.60879072        0.36432479
 C           -1.34457289       -3.43937857        1.08452817
 C           -0.02034193       -3.17370756       -0.95124692
 C           -3.15761446       -1.86703055        0.99777351
 C           -2.43146673       -2.90126818        0.40401570
 C           -3.21739919        0.46159121        0.71822883
 C           -3.71261247       -0.79468582        0.18162219
 C           -1.48456590        2.09972373        0.35457439
 C           -2.57063397        1.35518430       -0.12546708
 C            0.26406156        3.71709099       -0.05379565
 C           -0.91648807        3.09218485       -0.45306446
 C            2.56190445        3.44556179       -0.38272630
 C            3.12666989        2.17819506       -0.81027846
 C            1.34384098        3.89311978       -1.02194621
 C            2.32430618        0.13701350       -1.80345268
 C            2.53339886        1.51848150       -1.87995994
 C            1.02010801       -1.77432967       -2.61246410
 C            1.70135809       -0.51803844       -2.86060822
 C           -0.19722304       -1.78413383       -3.40815355
 C           -1.20014694       -3.20730806       -1.68858536
 C           -2.46211481       -3.05297573       -0.98086500
 C           -1.29516344       -2.49498540       -2.95066067
 C           -3.78815008       -0.95191021       -1.19274932
 C           -3.31169690       -2.18947215       -1.77731838
 C           -2.60089090       -1.86905010       -3.00524692
 C           -2.84299162        1.30798412       -1.49539458
 C           -3.35508565        0.13725360       -2.05147182
 C           -2.67734576       -0.43533460       -3.20402375
 C           -1.27964825        3.16832739       -1.79477890
 C           -2.17696432        2.17589770       -2.34808409
 C            1.12455720        3.48767794       -2.32823825
 C            1.79934852        2.28071845       -2.79226276
 C           -0.24554789        3.41037492       -2.78442397
 C            0.89673436        0.24255431       -3.80390930
 C           -0.38236629       -0.44222783       -3.94393217
 C           -1.58310536        0.24696722       -3.72744216
 C           -1.55319837        1.62575481       -3.54338537
 C            0.93082144        1.62698585       -3.75633966
 C           -0.32263916        2.35380629       -3.77771997
