   70
C70 / DATE: 7/ 1/2024 / Origin: Program Fullerene / C70 from database
 C            1.50110696       -0.05936496        5.21863860
 C            0.63597109       -1.21370462        5.37970274
 C            1.19374345       -2.28432252        4.58306101
 C            2.50053078       -0.37859185        4.21020195
 C            2.30373318       -1.74957898        3.80642187
 C            2.44443405        0.64508895        3.19208928
 C            0.69157686        1.01702683        4.68736720
 C            1.42199187        1.60285768        3.57786591
 C           -0.66156300       -0.89210395        4.80454237
 C           -0.63345756        0.49652678        4.40468250
 C            0.09498878       -2.88784513        3.85295519
 C           -0.96387736       -1.89011049        3.79482553
 C            0.41786940       -3.54278249        2.68281747
 C            2.35775259       -2.08267114        2.45545035
 C            1.72515460       -3.27012431        2.10806972
 C            2.51734603        0.28095167        1.85039735
 C            2.50290451       -1.07219238        1.47832540
 C            2.14001285        1.23395886        0.91067522
 C            0.67924600        2.17602233        2.55446715
 C            1.27226437        2.26060572        1.29966305
 C           -1.19257695        0.85551202        3.18784221
 C           -0.70228046        2.01008712        2.59330067
 C           -1.44164454       -1.46913765        2.54779101
 C           -1.75389219       -0.12216341        2.35268818
 C           -0.50567344       -3.45365890        1.57350600
 C           -1.28655574       -2.30396914        1.43687211
 C            1.65277746       -3.64810885        0.72281029
 C            0.24976305       -3.92417239        0.43924172
 C            2.41081079       -1.39802868        0.10893560
 C            2.10656627       -2.70209508       -0.27055096
 C            2.30023649        0.94953541       -0.43899902
 C            2.27531622       -0.38212575       -0.85350202
 C            2.05084869        1.96390045       -1.35182042
 C            0.61171269        2.99936892        0.32048194
 C            1.14293917        3.02827436       -0.96194289
 C           -1.44465804        2.53997103        1.55684865
 C           -0.74663562        3.23907575        0.49319447
 C           -2.27613379        0.29037754        1.12342190
 C           -2.40085207        1.65874138        0.91679658
 C           -1.60995001       -1.82707609        0.15349625
 C           -2.20142009       -0.56159344        0.01205764
 C           -0.03405955       -3.34572799       -0.84424867
 C            1.22698181       -2.89711095       -1.39529260
 C           -1.12048024       -2.49017791       -0.98346810
 C            1.82235863       -0.70655577       -2.14845617
 C            1.13851640       -1.90609398       -2.34620903
 C            1.78604792        1.63667316       -2.73793464
 C            1.62703075        0.30310236       -3.10666400
 C            0.28093232        3.31943783       -2.09958187
 C            0.87516571        2.65452035       -3.25175363
 C           -1.63072370        3.21296269       -0.65524516
 C           -2.60710003        2.16078012       -0.41806948
 C           -1.10790084        3.33840510       -1.93634782
 C           -2.51975577       -0.07834468       -1.27448213
 C           -2.86483482        1.27509727       -1.44764822
 C           -1.22262731       -1.85823892       -2.21743689
 C           -0.07002323       -1.82724508       -3.00787511
 C           -2.17751308       -0.86245787       -2.38604964
 C            0.86949692        0.00384027       -4.24784776
 C           -0.07775357       -1.09445231       -4.17387359
 C            0.08724939        2.37331657       -4.35802019
 C            0.22640244        1.07690959       -4.98962591
 C           -1.91883577        2.91281379       -2.98511445
 C           -2.85960713        1.83051774       -2.72166835
 C           -1.32919532        2.67903109       -4.28775184
 C           -2.39548186       -0.39184236       -3.68191108
 C           -1.35102148       -0.61975611       -4.66303670
 C           -1.10001424        0.61796594       -5.37525351
 C           -2.86775828        0.95928018       -3.86781379
 C           -2.06592340        1.59098925       -4.90600943
