   70
C70 / DATE: 7/ 1/2024 / Origin: Program Fullerene / C70 from database
 C            1.25228210       -0.15225766        4.03028411
 C            2.38082898       -0.29068558        3.12880401
 C            2.24804429       -1.56783422        2.44099583
 C            0.38911912       -1.30633739        3.84505346
 C            0.96850396       -2.14124262        2.81363841
 C           -0.96512198       -0.82946983        3.65821078
 C            0.43286040        1.04004420        3.95037864
 C           -0.93945190        0.62534100        3.71213703
 C            0.92847435        2.14561428        3.28230137
 C            2.83822475        0.81604394        2.41451668
 C            2.17772719        2.04277551        2.53576736
 C            3.62867592        0.58731293        1.28992444
 C            2.69038601       -1.66349574        1.12394869
 C            3.65573894       -0.74961380        0.72053832
 C            1.87510788       -2.29054039        0.16675831
 C            0.14527890       -2.63101633        1.81367554
 C            0.71448678       -2.94936676        0.58299179
 C           -1.77084337       -1.44675392        2.70805445
 C           -1.24218108       -2.47607999        1.92115968
 C           -2.88702955       -0.74920789        2.25564669
 C           -1.75217176        1.34746442        2.83701662
 C           -2.86728386        0.70475108        2.29903957
 C            0.01785768        2.97151608        2.51092983
 C           -1.28199256        2.53186249        2.25536930
 C            2.06492915        2.91044881        1.37202292
 C            0.79059550        3.59899802        1.44864989
 C            3.56886767        1.52110953        0.17691397
 C            2.54431936        2.45888183        0.14731079
 C            3.98110126       -0.62276745       -0.68026627
 C            3.90641221        0.79044200       -1.02578751
 C            2.15605415       -2.17899740       -1.20670266
 C            3.18366839       -1.34642392       -1.64463681
 C            1.21254228       -2.60584092       -2.14708208
 C           -0.02689424       -3.68175495       -0.33274674
 C            0.17156803       -3.44035255       -1.74770795
 C           -2.06290968       -3.09039810        0.97990107
 C           -1.45010661       -3.83868489       -0.10368927
 C           -3.54090223       -1.14777339        1.01961885
 C           -3.17191659       -2.33814348        0.41717945
 C           -3.46808619        1.18778991        1.06688458
 C           -3.65943448        0.04054556        0.19579887
 C           -2.00398511        3.13414103        1.22561365
 C           -3.02112453        2.37617619        0.52044740
 C            0.15339070        3.96785136        0.27608926
 C           -1.29645635        3.92724040        0.23446819
 C            1.75646454        2.59934104       -1.00553934
 C            0.65338141        3.45270686       -0.98909097
 C            3.03164432        0.90615787       -2.17092066
 C            2.91649721       -0.42648746       -2.73315230
 C            1.89076953        1.69744460       -2.06957804
 C            1.12067678       -1.94101729       -3.37164193
 C            1.84622634       -0.69814599       -3.56465763
 C           -0.18359870       -1.75638952       -3.97920633
 C           -1.14293704       -3.30424908       -2.36717203
 C           -2.13945615       -3.48090145       -1.33151919
 C           -3.02384174       -2.37179331       -1.02719911
 C           -1.34259580       -2.30034638       -3.30251589
 C           -3.10720809        0.04189162       -1.08493536
 C           -2.88602308       -1.17680889       -1.73663754
 C           -2.22563898       -1.18858719       -2.96621903
 C           -2.68963169        2.41265220       -0.89281527
 C           -1.69447205        3.45122568       -1.07920738
 C           -0.49152430        3.12720351       -1.82156597
 C           -2.54374165        1.21784163       -1.59199321
 C            0.78566972        1.40568939       -2.87550324
 C            0.84768442        0.33747888       -3.76680000
 C           -0.38670166       -0.32646679       -4.14354626
 C           -1.60556969        0.03379695       -3.44516720
 C           -0.45691666        1.95189214       -2.55933517
 C           -1.59831086        1.14455952       -2.61350143
