   70
C70 / DATE: 7/ 1/2024 / Origin: Program Fullerene / C70 from database
 C            1.57894529        0.01067783        4.70731944
 C            0.73444200       -1.16636959        4.74340014
 C            1.36385401       -2.18223838        3.91919693
 C            2.57645635       -0.19254147        3.66762054
 C            2.39526285       -1.52126810        3.13123927
 C            2.49836353        0.92762923        2.75728141
 C            0.75043352        1.12971483        4.30121363
 C            1.44314823        1.80469348        3.23030330
 C           -0.62576356       -0.75709143        4.42835566
 C           -0.58404782        0.63984922        4.02554009
 C           -1.43245236       -1.63804951        3.72468301
 C            0.54882525       -3.11687695        3.29532218
 C           -0.89451742       -2.94002255        3.36136099
 C            0.87170279       -3.53669958        1.94273076
 C            2.40813473       -1.70514778        1.75193734
 C            1.90619697       -2.90697314        1.25183816
 C            2.58465315        0.70614438        1.38149597
 C            2.57896799       -0.60535199        0.88720903
 C            2.17431934        1.74363217        0.53891605
 C            0.69249904        2.43308911        2.25642319
 C            1.35819778        2.74079308        1.08702664
 C           -1.19557776        1.04417149        2.83801107
 C           -0.67485242        2.14975252        2.15191376
 C           -2.19246849       -1.14813789        2.58764819
 C           -2.04013978        0.16737743        2.15421597
 C           -1.45359429       -3.31085446        2.07200724
 C           -0.37634584       -3.78363728        1.23608922
 C           -2.24068852       -2.20332847        1.58894806
 C           -0.40261774       -3.50894268       -0.12582587
 C            1.99999392       -3.15365998       -0.10923819
 C            0.81265041       -3.65153589       -0.77912928
 C            2.54990671       -0.81226215       -0.49575029
 C            2.54476914       -2.12049074       -0.96352021
 C            2.19464214        1.54838394       -0.84592717
 C            2.21540169        0.24750633       -1.35358833
 C            1.85904251        2.60815635       -1.68541861
 C            0.72836455        3.64231790        0.25410161
 C            1.17509382        3.74782342       -1.11321557
 C           -1.35253649        2.62811521        1.02106835
 C           -0.72115798        3.61558515        0.25793950
 C           -2.39434266        0.47514690        0.84474340
 C           -2.29570372        1.79456074        0.41374346
 C           -2.13649489       -1.84272506        0.25247744
 C           -1.33894800       -2.58321898       -0.62865940
 C           -2.49278189       -0.55131320       -0.10003332
 C           -1.25666196       -2.15945867       -1.96753347
 C            0.91354178       -3.28476487       -2.16661130
 C            2.06521383       -2.40141318       -2.29795465
 C           -0.20691936       -2.60757315       -2.77449524
 C            1.79034420        0.00605830       -2.67400096
 C            1.65227536       -1.29927110       -3.13496902
 C            0.38474254       -1.68791993       -3.72352351
 C            1.24237596        2.33082432       -2.96877271
 C            1.13111147        1.01092451       -3.38666062
 C            0.01284708        4.04038093       -1.93041574
 C           -1.16979043        3.90101157       -1.09344096
 C            0.11854016        3.24763694       -3.14022128
 C           -2.82535687        2.11935262       -0.83308009
 C           -2.27280945        3.22777167       -1.59375895
 C           -2.63558374       -0.23803624       -1.44321134
 C           -1.99191566       -1.04181946       -2.39567132
 C           -3.09402424        1.03792065       -1.76402856
 C           -0.41695434       -0.68951252       -4.23521084
 C            0.12119998        0.65609190       -4.28340054
 C           -1.74954064       -0.55120325       -3.68352240
 C           -1.04758178        2.79625500       -3.74483333
 C           -2.29738549        2.85660945       -3.00147751
 C           -2.94047617        1.55748703       -3.10552765
 C           -1.02257051        1.53331251       -4.45442171
 C           -2.20385776        0.77295148       -4.06627110
