   70
C70 / DATE: 7/ 1/2024 / Origin: Program Fullerene / C70 from database
 C            1.62343594        0.04214959        4.75608394
 C            0.83046861       -1.15991591        4.57662797
 C            1.51351687       -2.00980127        3.61468900
 C            2.72994172       -0.01638565        3.81835281
 C            2.75601880       -1.34751262        3.24575649
 C            2.62450789        1.12029179        2.91722726
 C            0.79414323        1.17244422        4.38499583
 C            1.48154529        1.91025216        3.34127077
 C           -0.53673674       -0.75700439        4.29786007
 C           -0.54209346        0.68353189        4.09769592
 C           -1.28938059       -1.55045472        3.44946024
 C            0.75812878       -2.65230644        2.63291609
 C           -0.63399544       -2.64057327        2.74539806
 C            1.35460908       -2.99342241        1.41315053
 C            3.21631654       -1.48228399        1.94813064
 C            2.60594517       -2.47889544        1.09013373
 C            2.84207505        0.92040784        1.55121746
 C            3.40291050       -0.28422993        1.13963848
 C            2.16062455        1.72106753        0.62360076
 C            0.71316127        2.51050827        2.35885980
 C            1.29169206        2.70020658        1.10933096
 C           -1.20541192        1.23033076        3.00077885
 C           -0.67511568        2.38598723        2.43236705
 C           -2.19007094       -0.91694811        2.50253102
 C           -2.06370009        0.43837452        2.22912721
 C           -1.45612637       -2.94982321        1.59191480
 C           -2.37507516       -1.83761674        1.39740348
 C            0.58819077       -3.55919985        0.39718085
 C           -0.86243100       -3.52535905        0.48269320
 C            0.96025060       -3.33465263       -0.99556794
 C            2.87740508       -2.07775626       -0.27883049
 C            3.29416895       -0.68292568       -0.24578057
 C            2.03245210       -2.49912375       -1.30195454
 C            2.11385555        1.35729872       -0.73511876
 C            2.75319150        0.19160874       -1.17538140
 C            1.36756073        2.12766893       -1.64124548
 C            0.64158507        3.54523704        0.22446022
 C            0.73822248        3.28957243       -1.19909848
 C           -1.43843822        3.05642115        1.48870568
 C           -0.74018345        3.87685935        0.51785421
 C           -2.51966405        0.92475856        1.00156677
 C           -2.44433290        2.29281282        0.77101020
 C           -2.56553901       -1.33510625        0.11337180
 C           -2.66344346        0.05022561       -0.08320730
 C           -1.37417495       -3.19322684       -0.83351195
 C           -0.26832675       -3.25517332       -1.77285235
 C           -2.31057607       -2.17321850       -0.97317098
 C           -0.32583435       -2.45762718       -2.91107917
 C            1.99017673       -1.73925705       -2.46695489
 C            2.41283853       -0.34718976       -2.40804600
 C            0.83283274       -1.81317216       -3.34497152
 C            1.05808090        1.62748960       -2.91198777
 C            1.58676691        0.41022394       -3.32114247
 C            0.74885881       -0.53731979       -4.04335026
 C           -0.01193722        2.16583100       -3.62457496
 C           -0.52421059        3.69458982       -1.80107521
 C           -1.48430272        3.82396223       -0.72184655
 C           -2.50676275        2.79901258       -0.58727010
 C           -0.94367209        3.04268571       -2.94627070
 C           -2.87703012        0.55311421       -1.37410431
 C           -2.68678835        1.91580689       -1.64458494
 C           -2.19957559        2.31496194       -2.89103877
 C           -2.56558914       -1.70941175       -2.25441567
 C           -1.57223731       -1.96052307       -3.28847304
 C           -3.03162932       -0.34890478       -2.42638890
 C           -0.46765364       -0.11382880       -4.55923462
 C           -0.81437252        1.29300613       -4.46853307
 C           -2.19105348        1.38588297       -4.00138081
 C           -1.66030291       -0.87959866       -4.25290113
 C           -2.67771047        0.04516647       -3.77801708
