   70
C70 / DATE: 7/ 1/2024 / Origin: Program Fullerene / C70 from database
 C            1.39631466       -0.11342802        4.26424500
 C            2.64523593       -0.36191546        3.58491819
 C            2.59175648       -1.70384445        3.02399917
 C            0.56112117       -1.29649637        4.11757094
 C            1.25482429       -2.22497485        3.24359876
 C           -0.76983705       -0.85045568        3.73928013
 C            0.60053689        1.02690512        3.86017101
 C           -0.78378762        0.59529017        3.86497874
 C            1.03579558        1.86910191        2.83585964
 C            3.04845827        0.53402327        2.52029525
 C            2.24020980        1.61264427        2.15667955
 C            3.09162076       -1.63010580        1.66105184
 C            3.62197645       -0.29155751        1.47494477
 C            2.34450908       -2.21670442        0.64170818
 C            0.56568187       -2.76264359        2.16285921
 C            1.26809511       -3.03264384        0.98673967
 C           -1.38866208       -1.44793121        2.64360298
 C           -0.81987600       -2.60033722        2.10160002
 C           -2.31658753       -0.72263582        1.88720923
 C           -1.69664574        1.31959325        3.11953197
 C           -2.55565742        0.61740140        2.17916200
 C            0.11622175        2.76804619        2.29248301
 C           -1.25068974        2.53634847        2.46336433
 C            0.53423985        3.65473478        1.30861799
 C            2.50075277        2.25040918        0.93996430
 C            1.73725034        3.34723337        0.56141482
 C            3.68718551        0.22394882        0.19289123
 C            3.24137792        1.58767486       -0.03695920
 C            2.42938255       -1.71022422       -0.65983692
 C            3.19744966       -0.58026182       -0.91363301
 C            1.53699570       -2.15859191       -1.63518359
 C            0.63196130       -3.75213935       -0.01533129
 C            0.81697502       -3.32587571       -1.39106722
 C           -1.52607917       -3.29464051        1.12861581
 C           -0.77186978       -4.06930708        0.16191331
 C           -2.75050071       -1.23311727        0.66184272
 C           -2.57108710       -2.59039362        0.40850545
 C           -3.03594209       -0.35357041       -0.39016773
 C           -2.84415143        1.52558255        1.08365915
 C           -2.16775852        2.78003437        1.36179117
 C           -2.86191035        1.01854659       -0.21078992
 C           -0.44389727        4.19272091        0.37779324
 C           -1.75454235        3.57355810        0.30531798
 C            1.45487956        3.56212525       -0.85156177
 C            0.13913869        4.16667929       -0.95190130
 C            2.82734622        1.68126461       -1.42692356
 C            2.78061597        0.32753756       -1.96366919
 C            1.83986339        2.59671260       -1.78127929
 C            1.16898547       -1.31198723       -2.69060476
 C            1.73094453       -0.03503734       -2.79739720
 C            0.09947368       -1.65423850       -3.51934785
 C           -0.41971513       -3.58577550       -2.10883890
 C           -1.42829351       -3.94748688       -1.12604822
 C           -2.58934039       -3.08895953       -0.95664870
 C           -0.78072901       -2.75130260       -3.15460149
 C           -3.22889658       -0.83850663       -1.67883306
 C           -2.93514639       -2.22835696       -1.98665875
 C           -2.14543107       -2.25108132       -3.20677678
 C           -0.72857455       -0.60103057       -4.08430111
 C           -2.78706057       -0.02628771       -2.79765919
 C           -2.10462513       -0.90122859       -3.73640648
 C           -2.43989515        1.81183757       -1.28521778
 C           -1.94428656        3.09619096       -1.05448492
 C           -0.82990371        3.57867124       -1.85393223
 C           -2.24233219        1.22792393       -2.53939491
 C            1.01356536        2.31329272       -2.87061731
 C            1.02712733        0.97564613       -3.44616789
 C           -0.30317686        0.71137910       -3.96434652
 C           -0.36786877        2.78368268       -2.88950659
 C           -1.19311140        1.67833426       -3.34208611
