   70
C70 / DATE: 7/ 1/2024 / Origin: Program Fullerene / C70 from database
 C            1.40314874       -0.14155139        4.14423960
 C            2.48860392       -0.37153442        3.21227585
 C            2.23684683       -1.63628380        2.53495939
 C            0.55720019       -1.32010829        4.13513944
 C            1.01556290       -2.19834429        3.07000415
 C           -0.82221049       -0.87296836        4.10832484
 C            0.55574766        1.01716452        3.94894623
 C           -0.80396387        0.53806895        3.75682653
 C            1.02484085        2.04790639        3.15237534
 C            2.98227544        0.69087057        2.46261745
 C            2.33534089        1.93220510        2.52498122
 C            3.74880663        0.37381124        1.34618941
 C            2.49839983       -1.72468700        1.17461881
 C            3.47959773       -0.87973251        0.65759580
 C            1.52396420       -2.24924548        0.31704680
 C            0.06876143       -2.74007210        2.20858316
 C            0.33556360       -2.80180202        0.83072774
 C           -1.74634533       -1.69069237        3.48190825
 C           -1.24924565       -2.78358376        2.66092585
 C           -2.81753129       -1.07435390        2.72400344
 C           -1.55179042        0.97815961        2.66197008
 C           -2.65422901        0.22365225        2.24351399
 C            0.13078770        2.64957654        2.17957730
 C           -1.07035173        2.02409404        1.86256138
 C            2.32638724        2.81980866        1.36853856
 C            0.94480002        3.19025775        1.10490110
 C            4.01421773        1.38695668        0.34381513
 C            3.17225625        2.56552918        0.30170959
 C            3.52878292       -0.62154866       -0.76971898
 C            3.96030935        0.74595504       -0.95943285
 C            1.69497150       -2.12034925       -1.06278998
 C            2.50862511       -1.10958829       -1.56855594
 C            0.85373407       -2.80317952       -1.92233915
 C           -0.64290117       -3.30348806       -0.04678025
 C           -0.41410399       -3.27951075       -1.41796407
 C           -2.30772956       -3.13635848        1.74311734
 C           -3.32497127       -2.09929460        1.82915706
 C           -1.97597947       -3.31215223        0.35055887
 C           -3.69863151       -1.72558270        0.47738036
 C           -2.93513578       -2.55580803       -0.43813432
 C           -3.37543551        0.61968255        1.11981483
 C           -3.86489919       -0.38540396        0.18187939
 C           -1.65802353        2.28788842        0.62643120
 C           -2.90538658        1.74622994        0.33918777
 C            0.45364618        3.14986044       -0.19745280
 C           -0.90535765        2.87569949       -0.39603501
 C            2.66384497        2.69636989       -1.05220173
 C            3.18067923        1.58827631       -1.84039473
 C            1.35089836        3.10401120       -1.27504571
 C            2.10623788       -0.38792387       -2.69997474
 C            2.32918246        0.99365650       -2.76674516
 C            0.62051949       -2.25904238       -3.24740259
 C            1.20002054       -0.97010783       -3.58203110
 C           -1.45408045       -2.72448888       -2.27118791
 C           -2.51232845       -2.05293122       -1.66813013
 C           -0.81874919       -2.15966668       -3.43766125
 C           -3.54859313        0.07757832       -1.15422882
 C           -3.27834518        1.49756725       -1.04270574
 C           -2.75555201       -0.70681181       -1.99439417
 C           -1.45344210        2.98199115       -1.67120131
 C           -2.55308891        2.11122598       -2.04508809
 C            0.85948222        2.93382773       -2.56587430
 C            1.35875948        1.81090381       -3.34351200
 C           -0.56190476        3.04765311       -2.80706122
 C            0.13768916       -0.15549877       -4.14453649
 C           -1.12211049       -0.79253717       -3.79116708
 C           -2.06494104       -0.08446309       -3.04730209
 C           -2.09429172        1.30607731       -3.16272389
 C            0.23916140        1.22473594       -4.06309845
 C           -0.94800369        1.99344406       -3.73353120
