   70
C70 / DATE: 7/ 1/2024 / Origin: Program Fullerene / C70 from database
 C            1.53541969        0.04339652        4.79423342
 C            0.72405175       -1.14233126        4.61398276
 C            1.31738519       -1.95370076        3.56081933
 C            2.66249941       -0.05969973        3.88995831
 C            2.49356207       -1.25694670        3.08044923
 C            2.77844175        1.21085890        3.20424259
 C            0.73870643        1.18146614        4.36515319
 C            1.50105695        1.89214495        3.35988175
 C           -0.64468802       -0.70149632        4.43426250
 C           -0.57700041        0.68907102        4.00970073
 C           -1.48659653       -1.54822969        3.73863525
 C            0.45829640       -2.55999474        2.65075394
 C           -0.88173498       -2.65836443        3.02162733
 C            0.79699647       -2.59032434        1.28871868
 C            2.72294241       -1.16229796        1.71282603
 C            1.90013024       -1.85374523        0.81914671
 C            3.35303199        1.20090131        1.94386435
 C            3.45676848       -0.07413812        1.24876209
 C            2.88600438        2.16460279        0.96362466
 C            0.85442555        2.35227022        2.21645529
 C            1.64397502        2.76143767        1.14285739
 C           -1.12273355        1.05074357        2.77708783
 C           -0.49179643        2.02158870        1.99152907
 C           -2.43164913       -0.96531622        2.80881820
 C           -2.12097832        0.25461279        2.21183799
 C           -1.85720283       -3.09576991        2.05046903
 C           -2.87706811       -2.05894177        1.97442933
 C           -0.07044044       -3.21361228        0.37647644
 C           -1.41486343       -3.36313744        0.70160130
 C            0.25163953       -3.23727446       -0.97477811
 C            2.13833197       -1.74201812       -0.55657710
 C            1.44741144       -2.56558376       -1.43597474
 C            3.48210732        0.21153686       -0.17070336
 C            3.22500342        1.63414308       -0.34410783
 C            2.89821958       -0.67907949       -1.05772745
 C            2.49963890        2.05434964       -1.45670604
 C            1.02879378        3.34097761        0.04494198
 C            1.52893487        3.04112383       -1.29075230
 C           -1.11303242        2.45442573        0.81736628
 C           -0.41721632        3.32301523       -0.01989560
 C           -2.55621719        0.52524344        0.91090556
 C           -2.21269576        1.74534770        0.32273321
 C           -3.12232282       -1.79823578        0.57518748
 C           -2.41122788       -2.79767415       -0.19152306
 C           -3.09006829       -0.49614506        0.10893736
 C           -0.80277427       -2.96638764       -1.94212848
 C           -2.02485602       -2.47254473       -1.48689504
 C            1.20957075       -2.12736515       -2.80348871
 C           -0.18501996       -2.39111638       -3.12552147
 C            2.67289048       -0.22008451       -2.35154852
 C            2.42543135        1.19907031       -2.55323030
 C            1.81406015       -0.96328422       -3.25370424
 C            1.34030212        1.32889605       -3.51294471
 C            1.05105238       -0.00107712       -4.03417406
 C            0.39985710        3.11861967       -2.20636210
 C           -0.78447564        3.43459314       -1.41776739
 C            0.30260806        2.22791974       -3.27390587
 C           -2.73900798        2.05681380       -0.93314464
 C           -2.01387543        2.94860291       -1.82408800
 C           -3.11120964       -0.32052506       -1.26799161
 C           -2.55526722       -1.32233564       -2.08292233
 C           -3.27202122        0.97564651       -1.73853676
 C           -0.90674955       -1.47947231       -3.88712205
 C           -0.23969312       -0.31072684       -4.44106717
 C           -2.20616712       -1.04865067       -3.40495983
 C           -0.93601684        2.02749082       -3.88078493
 C           -2.13943382        2.43056790       -3.17483594
 C           -3.03030911        1.28431202       -3.13174592
 C           -1.22057817        0.75660483       -4.52512111
 C           -2.47255941        0.25523258       -3.97953982
