   70
C70 / DATE: 7/ 1/2024 / Origin: Program Fullerene / C70 from database
 C            1.49588671        0.09621516        4.94003114
 C            0.71008694       -1.12306694        4.97025211
 C            1.45530062       -2.15044919        4.26709065
 C            2.63747071       -0.13522499        4.07058694
 C            2.63524032       -1.52823864        3.68860565
 C            2.59570317        0.85797027        3.01757793
 C            0.67983796        1.13315363        4.32996743
 C            1.42630632        1.69006357        3.22601330
 C           -0.62775656       -0.80061359        4.50881792
 C           -0.62583003        0.57945223        4.04639247
 C           -1.32115006       -1.74040014        3.76207965
 C            0.78553949       -2.89850604        3.21592169
 C           -0.59483952       -2.83101624        3.11221652
 C            2.65594134       -1.84915220        2.27473820
 C            1.58036913       -2.78389047        2.00500532
 C            2.89134485        0.49554677        1.70590966
 C            2.90190021       -0.85393530        1.33368416
 C            2.57493717        1.42096071        0.71598221
 C            0.73786622        2.10001419        2.09221649
 C            1.47715950        2.26148086        0.92845345
 C           -1.23001682        0.88678482        2.82627352
 C           -0.62566471        1.81348914        1.96502048
 C           -2.30302685       -1.26884556        2.80618159
 C           -2.22436790        0.04103298        2.33174786
 C           -1.20469934       -3.03227284        1.80983493
 C           -2.47926324       -2.34393213        1.85262787
 C            0.95101390       -2.71789806        0.76080579
 C           -0.42631351       -2.93691290        0.65373254
 C            2.62489274       -1.15298925        0.00307875
 C            1.61528744       -2.07973780       -0.28498533
 C            2.94420810        1.13203001       -0.59326125
 C            2.96937467       -0.21600904       -0.96559246
 C            2.72287655        2.12303621       -1.54439611
 C            0.85633776        2.85178003       -0.16515264
 C            1.60226803        3.01659223       -1.33067688
 C           -1.25803331        2.13348812        0.75941821
 C           -0.53764374        2.82481084       -0.22640003
 C           -2.83749757        0.34573594        1.11781073
 C           -2.46306824        1.50106420        0.43251044
 C           -3.09568155       -2.04517422        0.65544466
 C           -3.49834100       -0.67218315        0.42701881
 C           -1.06760827       -2.68638962       -0.56542772
 C           -2.44768400       -2.46671753       -0.56971644
 C            1.05647723       -2.10914953       -1.56130074
 C           -0.31427205       -2.34566255       -1.69434930
 C            2.81552215       -0.58747876       -2.29757714
 C            1.77969103       -1.55108397       -2.61571693
 C            2.78611653        1.80673907       -2.95615174
 C            2.83537372        0.41625796       -3.34257368
 C            0.93450190        3.21469431       -2.60726369
 C            1.62991235        2.41117109       -3.59789939
 C           -1.17879452        3.25347980       -1.38460679
 C           -0.45007826        3.25261374       -2.63986638
 C           -3.10254152        1.80087222       -0.76872879
 C           -2.51256078        2.76901573       -1.66927971
 C           -3.71478922       -0.54562006       -1.00372684
 C           -3.04989014       -1.68050462       -1.63330011
 C           -3.62124395        0.71240424       -1.57796582
 C           -0.97243162       -1.98483312       -2.87194664
 C           -2.33826710       -1.49811574       -2.80745488
 C            1.09304713       -1.08751171       -3.81084192
 C            1.71151520        0.15703106       -4.22701398
 C            0.89753286        1.35940414       -4.28191215
 C           -0.28451192       -1.19428103       -3.87400107
 C           -1.15607039        2.35158932       -3.53788182
 C           -2.49562367        2.18442434       -3.00378564
 C           -3.06121575        0.85329554       -2.91175573
 C           -2.38345793       -0.21300972       -3.49002543
 C           -0.47893505        1.26173163       -4.08751635
 C           -1.08366993        0.00138058       -4.11299753
