   70
C70 / DATE: 7/ 1/2024 / Origin: Program Fullerene / C70 from database
 C            1.34019981        0.02473579        5.02494851
 C            0.55047090       -1.17577738        4.82921005
 C            1.41262230       -2.18138252        4.25327004
 C            2.59807557       -0.16069637        4.31964989
 C            2.66568289       -1.53564557        3.88334855
 C            2.69144704        0.87781035        3.31837936
 C            0.63395110        1.12824218        4.39127883
 C            1.54370473        1.75847100        3.47223884
 C           -0.64292483       -0.80158870        4.10104505
 C           -0.60796589        0.62896349        3.85398135
 C           -1.11342247       -1.61129929        3.07805476
 C            0.94391949       -2.90276480        3.08525377
 C           -0.33809134       -2.67495044        2.58411524
 C            2.89055324       -1.80820837        2.47358483
 C            2.04890131       -2.94439039        2.14921051
 C            3.10299482        0.56868643        2.02146198
 C            2.98882808       -0.75291418        1.55859867
 C            3.00958185        1.60691990        1.10431231
 C            1.03793219        2.33577802        2.31642446
 C            1.98116490        2.60596303        1.34085255
 C           -1.03546395        1.08671401        2.60593948
 C           -0.27565981        2.03698105        1.90338426
 C           -2.06661590       -1.05705097        2.24019709
 C           -1.94405310        0.29864028        1.90240417
 C           -2.71357498       -1.92229337        1.37989906
 C           -0.64852580       -3.20287295        1.32355085
 C           -1.92240137       -2.98968155        0.80359563
 C            1.76369453       -3.19097691        0.81904349
 C            0.39120229       -3.49337577        0.43949270
 C            2.70980295       -1.00764054        0.20499381
 C            2.28062389       -2.27413336       -0.17893272
 C            2.98858020        1.31312526       -0.31266060
 C            2.65086840        0.03692642       -0.72222944
 C            1.53696028        3.08958394        0.06363038
 C            2.34768519        2.44292132       -0.95326907
 C           -0.69151697        2.42838641        0.61527841
 C            0.17525466        3.20347426       -0.16757441
 C           -2.45935670        0.77172602        0.69604629
 C           -1.78228749        1.77960009        0.00705838
 C           -3.56020067       -1.37724763        0.34675579
 C           -3.43139543        0.03080074        0.03656077
 C           -2.10218132       -2.91758735       -0.63887982
 C           -3.28659536       -2.12115081       -0.87051911
 C            0.25300455       -3.15062036       -0.96980488
 C            1.43906022       -2.40417895       -1.34903857
 C           -0.98816437       -2.74400022       -1.45942572
 C            1.94301184       -0.12052368       -1.92105755
 C            1.28044036       -1.32104015       -2.19054507
 C            1.77024468        2.28291174       -2.20283079
 C            1.69526486        0.99040005       -2.74379230
 C           -0.18572540        3.52737404       -1.46686022
 C            0.76927242        3.20029341       -2.51154139
 C           -2.15798140        2.10240512       -1.30874404
 C           -1.48277418        3.13021523       -1.96285052
 C           -3.54676313        0.14432796       -1.39917661
 C           -3.26573568       -1.17088767       -1.95217431
 C           -2.98038244        1.23294915       -2.04526183
 C           -1.03863567       -1.84390410       -2.54162321
 C            0.16876107       -1.30314853       -3.01673179
 C           -2.26609579       -1.25827181       -2.90888073
 C            0.99703536        0.78727074       -3.94028961
 C            0.17395788       -0.40464954       -4.07138598
 C            0.04019094        3.07552070       -3.75066646
 C           -1.37630328        3.12575437       -3.41531049
 C            0.26879419        1.89144655       -4.54545463
 C           -2.74465211        1.06136194       -3.40925371
 C           -2.27347252       -0.24053249       -3.85454523
 C           -1.08975894       -0.01628385       -4.64681744
 C           -2.03443627        2.07503437       -4.15523121
 C           -1.03062645        1.39995520       -4.96369062
