   70
C70 / DATE: 7/ 1/2024 / Origin: Program Fullerene / C70 from database
 C            1.52627044        0.07948968        4.38121129
 C            0.71574850       -1.10454839        4.15210622
 C            1.44683579       -1.97602140        3.26173612
 C            2.66346664        0.01802900        3.48056996
 C            2.67351620       -1.29241805        2.87015809
 C            2.61185943        1.17008849        2.60581508
 C            0.73221861        1.23339559        4.00633358
 C            1.43264788        1.94196722        2.95890446
 C           -0.60488560       -0.67478023        3.74775781
 C           -0.60960106        0.77753986        3.72558900
 C           -1.24614468       -1.34804727        2.70933764
 C            0.74908564       -2.68477973        2.28888104
 C           -0.62145534       -2.44670812        2.10201773
 C            1.49655333       -3.23010640        1.24763468
 C            3.09553526       -1.41067280        1.55042835
 C            2.73938261       -2.57508689        0.87760136
 C            2.90553496        0.99263947        1.25619268
 C            3.36599852       -0.25133223        0.80957586
 C            2.38949226        1.90658565        0.33187639
 C            0.69182493        2.49775633        1.92622896
 C            1.34292721        2.75150521        0.72829987
 C           -1.31933251        1.39462928        2.70826602
 C           -0.70601367        2.38245849        1.92477190
 C           -2.28621905       -0.69121443        2.04137857
 C           -2.39005627        0.70000162        2.17178308
 C           -3.02590547       -1.37574162        1.06889413
 C           -1.29085821       -3.11953831        1.08364204
 C           -2.52569346       -2.56736821        0.55241892
 C            0.84315490       -3.66889882        0.02711365
 C           -0.53751317       -3.65054186       -0.04092310
 C            2.87158296       -2.64741277       -0.56511899
 C            1.61306389       -3.15455504       -1.09484554
 C            3.76787448       -0.37401732       -0.51704387
 C            3.51637069       -1.61849921       -1.23011823
 C            2.77993903        1.82453650       -1.01133760
 C            3.51845216        0.72356813       -1.43666473
 C            2.11714059        2.57802147       -1.97912474
 C            0.69591033        3.55660533       -0.19255527
 C            1.12533119        3.54849643       -1.57192418
 C           -1.43811281        2.96666012        0.87551962
 C           -0.75425833        3.59092985       -0.17237873
 C           -3.27251937        1.41527819        1.38545183
 C           -2.75002728        2.54315018        0.63839427
 C           -4.02177947       -0.71483729        0.35183538
 C           -4.20965671        0.70624093        0.54363712
 C           -4.14459918       -0.97451773       -1.07238390
 C           -2.51214645       -2.76671567       -0.89114955
 C           -1.16409528       -3.15435408       -1.25018766
 C           -3.18052457       -1.86028047       -1.69640037
 C            0.96887351       -2.47220462       -2.13068295
 C           -0.42451577       -2.35652869       -2.12131366
 C            3.06917510       -1.28252612       -2.56743778
 C            3.21939112        0.14936440       -2.73745989
 C            1.71628722       -1.63920698       -2.95949200
 C            1.60231129        1.91086987       -3.16592260
 C            2.05543869        0.63525900       -3.45472875
 C            1.08886395       -0.45165440       -3.50964741
 C           -0.05226794        3.34922664       -2.40236037
 C           -1.21192404        3.37017112       -1.53748684
 C            0.17598557        2.16775943       -3.20185144
 C           -3.18907226        2.37736563       -0.73732725
 C           -4.19901652        1.34104177       -0.76529890
 C           -4.08656510        0.30238796       -1.76218494
 C           -2.23367635        2.45216315       -1.74409955
 C           -2.41015603       -1.07411271       -2.64846979
 C           -1.03443285       -1.26497597       -2.75239294
 C           -0.24807701       -0.20854773       -3.20927949
 C           -0.71292538        1.10520923       -3.07804487
 C           -2.91490301        0.28735182       -2.61707580
 C           -1.99511470        1.33500853       -2.56664905
