   70
C70 / DATE: 7/ 1/2024 / Origin: Program Fullerene / C70 from database
 C            0.93160710       -0.04979329        4.89001516
 C            2.27291910       -0.38162374        4.46876350
 C            2.25462539       -1.77749244        4.06010483
 C            0.12196094       -1.24537917        4.70937965
 C            0.86711297       -2.11763332        3.82511040
 C           -1.19004075       -0.81004128        4.29770932
 C            0.23786926        1.02670778        4.21206411
 C           -1.15371496        0.64085568        4.17123343
 C            0.78741457        1.60123973        3.06852621
 C            2.85788962        0.36215146        3.37190185
 C            2.07367790        1.24565788        2.63427824
 C            3.18549439       -1.91017948        2.96717714
 C            3.68721092       -0.57830772        2.64996497
 C            2.70908601       -2.47017358        1.72196376
 C            0.41841844       -2.31833068        2.51227934
 C            1.33637893       -2.62954577        1.49877392
 C           -1.72438580       -1.31693509        3.05365246
 C           -0.92032113       -2.06192309        2.18461642
 C           -1.92672702        0.98802855        2.99121771
 C           -2.51379773       -0.23941309        2.49588045
 C           -0.05982334        2.27934643        2.18868679
 C           -1.39281001        1.86929229        2.05635266
 C            0.52210454        3.01714052        1.16694331
 C            2.45984386        1.55230630        1.32781258
 C            1.83169317        2.61071846        0.68909082
 C            3.74411657       -0.48291290        1.19973609
 C            3.50004290       -1.82266007        0.69923972
 C            3.12168690        0.58911127        0.55805055
 C            3.07909662       -1.95680120       -0.60571057
 C            0.89931077       -2.75158871        0.17553883
 C            1.84577201       -2.68132111       -0.84254576
 C           -1.34640879       -2.17055304        0.85823818
 C           -0.44617650       -2.55447771       -0.14125697
 C           -2.81419329       -0.31349878        1.14983522
 C           -2.51609131       -1.49916563        0.49760933
 C           -2.00064128        1.92258567        0.79875836
 C           -2.81774823        0.85729410        0.39504513
 C           -0.27212216        3.38584085        0.00953236
 C           -1.54908702        2.85130453       -0.13779793
 C            1.78951554        2.62960929       -0.75952605
 C            0.62790481        3.41086947       -1.13345907
 C            2.82856128        0.47029088       -0.80745758
 C            2.99599943       -0.76267729       -1.42533971
 C            2.08577912        1.46155143       -1.45370369
 C            1.42255985       -2.31558606       -2.17449995
 C            2.14621782       -1.10536292       -2.54252667
 C           -0.86247888       -2.54874348       -1.48412936
 C            0.08211658       -2.39600920       -2.51272196
 C           -3.02405397       -1.66307506       -0.77708580
 C           -2.22091546       -2.36813179       -1.75139771
 C           -3.25867354        0.77150698       -0.92716441
 C           -3.56612562       -0.48948984       -1.44114802
 C           -2.15787688        2.91414431       -1.38658492
 C           -3.04680958        1.84098973       -1.79414423
 C            0.09601799        3.24780092       -2.39984468
 C           -1.34768099        3.28026994       -2.53631191
 C            1.42538858        1.18628459       -2.66297433
 C            1.45104682       -0.10417213       -3.20849647
 C            0.58625291        2.15369016       -3.22358711
 C           -0.27649773       -1.75513504       -3.69608678
 C            0.41067993       -0.52082827       -4.03682633
 C           -2.66363553       -1.91962776       -3.06139046
 C           -3.48132347       -0.73005769       -2.86859639
 C           -1.66784253       -1.61469630       -4.05907696
 C           -2.84103272        1.60451169       -3.21954534
 C           -1.70987366        2.41253354       -3.64033681
 C           -0.50140375        1.74898760       -4.10051473
 C           -0.58080804        0.42722338       -4.51075970
 C           -2.96830351        0.31842055       -3.72859159
 C           -1.87394839       -0.24492225       -4.50394287
