   70
C70 / DATE: 7/ 1/2024 / Origin: Program Fullerene / C70 from database
 C            1.36265124        0.13078089        5.03972161
 C            0.58300320       -1.04393308        4.68787904
 C            1.45997828       -1.95172704        3.98970726
 C            2.59636582        0.08158566        4.27326703
 C            2.71203114       -1.25079534        3.73119634
 C            2.59305849        1.20496519        3.35395843
 C            0.62257082        1.29883924        4.59981517
 C            1.48732609        2.07115128        3.73121433
 C           -0.61939655       -0.59658614        4.01318953
 C           -0.65290061        0.85311599        4.06871684
 C           -1.03617219       -1.21510408        2.83628030
 C            1.01235583       -2.51000453        2.72790782
 C           -0.24861902       -2.19885817        2.22308315
 C            2.99771462       -1.39782808        2.31936604
 C            2.13640475       -2.44750231        1.82067050
 C            2.86164850        1.00490406        1.99682480
 C            3.18494238       -0.27691062        1.51221045
 C            2.52128578        2.02231084        1.09819156
 C            0.88605533        2.83559426        2.74418136
 C            1.52599972        2.93158503        1.44441228
 C           -1.19507621        1.53415948        2.98304711
 C           -0.53881667        2.66514190        2.49706010
 C           -1.97919750       -0.54972385        2.05964169
 C           -2.04767788        0.84609350        2.12205664
 C           -2.51341574       -1.20261154        0.95144542
 C           -0.49915124       -2.50502330        0.88374414
 C           -1.74723460       -2.19913010        0.34430724
 C            1.87404679       -2.45788362        0.46190345
 C            0.58229662       -2.75108035        0.02636413
 C            3.21483147       -0.49413380        0.13279400
 C            2.68769180       -1.69286538       -0.36513543
 C            2.83792518        1.88122164       -0.24589697
 C            3.33511724        0.60474860       -0.70839690
 C            1.90042215        2.37353755       -1.24677121
 C            0.49308444        3.25279677        0.47039158
 C           -0.79085135        3.09365968        1.12996833
 C            0.64355143        2.81382988       -0.84428044
 C           -2.60165211        1.53388941        1.04726626
 C           -1.82553951        2.50870636        0.41907371
 C           -3.52307258       -0.55939835        0.23800322
 C           -3.58570457        0.88850148        0.30891477
 C           -3.82280822       -0.95532723       -1.12732390
 C           -2.03711554       -2.62212126       -0.94859151
 C           -3.05247955       -1.93891624       -1.73094122
 C            0.36622720       -2.89641128       -1.34680350
 C           -0.93854542       -2.96006912       -1.83435198
 C            2.57266468       -1.89154773       -1.73568395
 C            1.42066150       -2.63365662       -2.22310968
 C            2.98870957        0.48258614       -2.11229795
 C            2.02424814        1.53115414       -2.41924588
 C            2.80056322       -0.78186458       -2.64529716
 C            0.89034349        1.22519455       -3.16318726
 C           -0.48948231        2.44282437       -1.58091474
 C           -1.74933464        2.51638198       -0.97005346
 C           -0.33757724        1.79439739       -2.81738391
 C           -3.89579892        1.38561346       -1.01873677
 C           -4.17689638        0.24256208       -1.86916454
 C           -2.89756738        2.19818646       -1.68333572
 C           -1.45971009        1.46474303       -3.57494962
 C           -3.55247668        0.49140954       -3.15422166
 C           -2.78108134        1.72251776       -3.04368105
 C           -2.52730194       -1.74353306       -3.07751678
 C           -1.25334254       -2.43876581       -3.15966935
 C           -2.68049460       -0.51943864       -3.72366084
 C           -1.50752231        0.17139076       -4.23291109
 C            1.13963961       -2.16434601       -3.56674007
 C            1.88623133       -0.93271399       -3.76231329
 C            0.92120112        0.11999907       -4.01374604
 C           -0.23748614       -1.91220548       -3.94738846
 C           -0.32134940       -0.52806271       -4.39407332
