   70
C70 / DATE: 7/ 1/2024 / Origin: Program Fullerene / C70 from database
 C            1.47473021        0.25162044        5.11082053
 C            0.70575049       -0.94881368        4.84840640
 C            1.60730540       -1.90275653        4.24229667
 C            2.69724524        0.16702864        4.32539540
 C            2.80071324       -1.18310759        3.82284215
 C            2.67916199        1.26063415        3.37386506
 C            0.71370319        1.37735762        4.60576214
 C            1.60236549        2.15349461        3.76532985
 C           -0.49275477       -0.57157037        4.11194978
 C           -0.51593775        0.87578614        4.01052876
 C           -0.87558183       -1.32312015        3.00526155
 C            1.12897560       -2.63537957        3.09266011
 C           -0.20389265       -2.52069708        2.72420891
 C            2.94639393       -1.38576321        2.39271580
 C            2.11919785       -2.51742376        2.03625609
 C            2.88089612        1.01576807        2.01301882
 C            2.96532628       -0.30147248        1.52901148
 C            2.60006802        2.05036347        1.11575627
 C            1.01937360        2.92229954        2.77528285
 C            1.70329359        3.04258346        1.49971308
 C           -0.95940415        1.46929385        2.82947797
 C           -0.37963546        2.67770779        2.45820096
 C           -1.62763906       -0.70386856        1.99861775
 C           -1.57893968        0.68520126        1.84629581
 C           -2.18240567       -1.48889290        0.99098147
 C           -0.55220403       -3.20017873        1.57278168
 C           -1.74723215       -2.80463906        0.86928600
 C            1.66333290       -2.64713931        0.72270213
 C            0.48106489       -3.35778284        0.55962049
 C            2.74620754       -0.54728741        0.17711588
 C            1.97841125       -1.65351495       -0.21780638
 C            2.82357155        1.84527373       -0.24112018
 C            2.98141107        0.48411583       -0.71343002
 C            2.01787011        2.56085643       -1.22332687
 C            0.70497096        3.49733911        0.55055913
 C           -0.59518311        3.17627875        1.12183933
 C            0.89740845        3.27895855       -0.81072894
 C           -1.96020627        1.26447690        0.62454140
 C           -1.52769683        2.56014512        0.30605643
 C           -2.80375547       -0.88764689       -0.10579474
 C           -2.59090852        0.47704123       -0.35399988
 C           -3.23845612       -1.72510795       -1.13445364
 C           -1.60818788       -3.37262082       -0.45305881
 C           -0.18189162       -3.36015664       -0.72558224
 C           -2.45306567       -2.90734415       -1.43658230
 C            1.35584678       -1.66011666       -1.48242182
 C            0.29154057       -2.54005172       -1.74210417
 C            2.44890470        0.40717160       -2.05457096
 C            1.94734403        1.72408988       -2.41281073
 C            1.72643772       -0.71172249       -2.44679435
 C            0.85011710        1.80376415       -3.26326503
 C           -0.23228566        3.28920377       -1.62279060
 C           -1.51462743        2.95886599       -1.01883775
 C           -0.19634954        2.66607955       -2.93619108
 C           -2.88306818        1.03034599       -1.61515140
 C           -2.28558808        2.22537482       -1.98790532
 C           -1.57080158        2.30057794       -3.25226046
 C           -3.63243972       -1.16170781       -2.40745126
 C           -3.42445660        0.24680470       -2.62967404
 C           -1.89270921       -2.66861553       -2.74898640
 C           -0.53920092       -2.32868998       -2.84524129
 C           -2.89309159       -1.87752766       -3.43944120
 C            1.00552667       -0.61219198       -3.63367476
 C            0.59895353        0.71069746       -4.08910767
 C           -0.09436973       -1.51962317       -3.88326268
 C           -1.81761271        1.33293099       -4.21375347
 C           -2.90392629        0.39501424       -3.98179761
 C           -2.46435041       -0.91569592       -4.43106655
 C           -0.69293784        0.58280190       -4.74047951
 C           -1.05062593       -0.82512012       -4.73423404
