   70
C70 / DATE: 7/ 1/2024 / Origin: Program Fullerene / C70 from database
 C            1.31504461       -0.07943016        4.26098723
 C            2.58458352       -0.34809642        3.62948842
 C            2.51806759       -1.67609072        3.03519407
 C            0.47309110       -1.25221739        4.08111931
 C            1.15581127       -2.14439193        3.16262340
 C           -0.85924799       -0.78473445        3.72967829
 C            0.54821001        1.06836684        3.82196752
 C           -0.84398232        0.66307418        3.84114440
 C            1.00390240        1.86368917        2.76836788
 C            3.05268130        0.55456803        2.59939990
 C            2.25750337        1.62179015        2.17703866
 C            3.10011988       -1.58949561        1.70957951
 C            3.69730036       -0.27112611        1.59789322
 C            2.40276933       -2.10394804        0.61869324
 C            0.47625517       -2.55855999        2.02570482
 C            1.15864611       -2.72171117        0.81521088
 C           -1.51568296       -1.37483878        2.65047216
 C           -0.91021934       -2.45605380        2.01112804
 C           -2.52581554       -0.66765590        1.98996674
 C           -1.75219286        1.39250460        3.09529569
 C           -2.72090725        0.68253549        2.27783934
 C            0.09540236        2.73234431        2.15281681
 C           -1.27440809        2.52055026        2.31210723
 C            0.51333120        3.53074455        1.09418387
 C            2.59491906        2.25952840        0.98134252
 C            1.84264549        3.34431657        0.55138641
 C            3.88723534        0.26223818        0.33526733
 C            3.45439135        1.62565491        0.08086958
 C            2.78525228       -1.70482224       -0.66357162
 C            3.51387217       -0.52825804       -0.82676268
 C            2.11135077       -2.21284436       -1.76529424
 C            0.46922151       -3.26255318       -0.27466165
 C            0.97424302       -3.08802087       -1.56123101
 C           -1.60656229       -3.12802573        1.02201904
 C           -0.86038853       -3.64970021       -0.10829510
 C           -3.13108947       -1.22338060        0.85924277
 C           -2.82607224       -2.53529823        0.50857780
 C           -3.75482227       -0.39077656       -0.07347236
 C           -3.12914045        1.58518261        1.21729972
 C           -2.14526301        2.65191933        1.15394320
 C           -3.61988293        1.05132857        0.04039150
 C           -0.39579921        3.74272599       -0.02351806
 C           -1.58246874        3.01938515       -0.06568177
 C            1.78705730        3.65422833       -0.86784361
 C            0.39579760        3.87837809       -1.22274766
 C            3.21705452        1.73957237       -1.35052973
 C            3.13442777        0.39343218       -1.88770981
 C            2.34613231        2.70790059       -1.81608695
 C            1.79403269       -1.31724754       -2.86826022
 C            2.09578655        0.03882447       -2.74668647
 C            0.06710789       -2.89726010       -2.68564690
 C            0.53099659       -1.74397136       -3.44103803
 C           -1.75567059       -3.66175588       -1.25265918
 C           -2.97334022       -2.96371176       -0.87196278
 C           -1.29410838       -3.10885034       -2.51077231
 C           -3.70356314       -0.71559189       -1.49133103
 C           -3.26101984       -1.97086138       -1.88942975
 C           -2.24409025       -2.08620997       -2.92405635
 C           -3.10184911        1.54266603       -1.22466042
 C           -1.95817992        2.34310990       -1.23815454
 C           -3.25240933        0.47383471       -2.19854167
 C            0.07953704        3.03278753       -2.34937318
 C            1.29107201        2.32590474       -2.73824644
 C            1.18151297        1.00821307       -3.18507849
 C           -1.12623400        2.34119730       -2.37042602
 C           -0.37474700       -0.78773486       -3.87007461
 C           -1.79256864       -0.94667116       -3.58134470
 C           -2.32666928        0.35897798       -3.22356592
 C           -0.04280938        0.61818254       -3.72781881
 C           -1.24516122        1.32223957       -3.31170639
