   70
C70 / DATE: 7/ 1/2024 / Origin: Program Fullerene / C70 from database
 C            1.53612059        0.14286603        4.99096661
 C            0.72878483       -1.06146189        4.95877400
 C            1.50281459       -2.08417884        4.28359406
 C            2.67022087       -0.05951104        4.10067537
 C            2.68092672       -1.44600143        3.70936866
 C            2.59993197        0.94690476        3.06088752
 C            0.73642126        1.22253018        4.44208187
 C            1.51415972        1.84677873        3.39946611
 C           -0.57938615       -0.71166111        4.42976212
 C           -0.56399181        0.70020918        4.07836225
 C           -1.22662776       -1.60116353        3.58496484
 C            0.86676604       -2.85852732        3.23254948
 C           -0.49959848       -2.73540664        3.02221049
 C            2.70477915       -1.76305103        2.29575591
 C            1.75023585       -2.83274446        2.08326291
 C            2.76299668        0.59945960        1.71301979
 C            2.79329543       -0.75194995        1.33015435
 C            2.39872373        1.55988086        0.76419529
 C            0.84356495        2.41770571        2.33676076
 C            1.58352040        2.61577599        1.18873594
 C           -1.12109798        1.11633166        2.86703051
 C           -0.52609522        2.17951573        2.17720927
 C           -2.08057433       -1.07396479        2.53783409
 C           -2.00273123        0.27359613        2.18570128
 C           -1.02145517       -2.96911033        1.68628699
 C           -2.13390187       -2.06846794        1.48241301
 C            1.22352576       -2.96029344        0.80860257
 C           -0.14805731       -3.17378710        0.62619699
 C            2.48717600       -1.10099384        0.00704189
 C            1.93206120       -2.36233532       -0.22393629
 C            2.44783096        1.23299021       -0.59280114
 C            2.36666653       -0.10576860       -0.97117469
 C            2.19868281        2.22593602       -1.53357319
 C            1.03851071        3.47687535        0.25769421
 C            1.53473330        3.43594144       -1.09681985
 C           -1.13817489        2.66406741        1.01554169
 C           -0.40931755        3.54470816        0.20769456
 C           -2.46877158        0.65406519        0.92730373
 C           -2.19319794        1.94076501        0.45593319
 C           -2.40050310       -1.63241063        0.19484542
 C           -2.88420627       -0.34214127        0.03653974
 C           -0.65263285       -3.06703952       -0.67118773
 C           -1.78337847       -2.25993499       -0.89346176
 C            1.59420210       -2.73306236       -1.51156355
 C            0.25847471       -3.25957528       -1.70220880
 C            1.99316468       -0.45355116       -2.27964292
 C            1.83345870       -1.80253787       -2.59031838
 C            1.63478030        1.86509776       -2.81825975
 C            1.55737672        0.52933406       -3.18180898
 C            0.41306939        3.68811948       -1.98421343
 C           -0.79151003        3.76060774       -1.17852315
 C            0.47743486        2.71827517       -3.05900126
 C           -2.74523621        2.35989168       -0.75314663
 C           -1.94698790        3.16808286       -1.65790446
 C           -3.41174754        0.00427906       -1.19446954
 C           -3.47447320        1.40256160       -1.56169651
 C           -2.11720324       -1.83557849       -2.19243717
 C           -2.98875408       -0.75349590       -2.35868185
 C           -0.13118280       -2.97777387       -3.06266207
 C            0.94373353       -2.20222870       -3.66470729
 C           -1.36467618       -2.26038646       -3.28718750
 C            0.64593642        0.20558451       -4.18642559
 C            0.33529655       -1.17638973       -4.47739314
 C           -1.10713938       -1.32740500       -4.36929671
 C           -0.69878355        2.14067841       -3.53431122
 C           -1.92039558        2.48606075       -2.94585763
 C           -3.00868013        1.52535472       -2.93344551
 C           -2.76802707        0.19247757       -3.44639062
 C           -0.59222828        0.96122917       -4.27267033
 C           -1.68865286       -0.00064810       -4.29223884
