   70
C70 / DATE: 7/ 1/2024 / Origin: Program Fullerene / C70 from database
 C            1.62833493        0.08260143        4.51441279
 C            0.84012860       -1.13487797        4.49363028
 C            1.40813994       -2.02567850        3.49724500
 C            2.66990072       -0.05007231        3.51330168
 C            2.57378526       -1.36563931        2.92144715
 C            2.57464437        1.08566611        2.63102072
 C            0.76042868        1.17487914        4.10432023
 C            1.34244388        1.79204651        2.93294044
 C           -0.54913827       -0.75376755        4.36157049
 C           -0.58423038        0.65701465        4.00302477
 C           -1.39915798       -1.61814855        3.69053249
 C            0.55451375       -2.74537722        2.65999132
 C           -0.82941875       -2.66417117        2.84574107
 C            1.04724605       -3.18851441        1.43436200
 C            2.81352755       -1.50308194        1.55661434
 C            2.28246098       -2.61539419        0.92489909
 C            2.88072828        0.91107945        1.29500060
 C            3.12255498       -0.37343845        0.78591177
 C            2.40837576        1.87422624        0.42269162
 C            0.51618909        2.15076453        1.86631819
 C            1.11119992        2.35350692        0.61722804
 C           -1.38051551        1.04972360        2.93205167
 C           -0.85704489        1.88613328        1.93078489
 C           -2.52636446       -1.05567093        2.96910340
 C           -2.52879803        0.30594595        2.66986699
 C           -1.71656888       -2.83007384        1.70093431
 C           -2.88892010       -2.00847123        1.93318967
 C            0.13949195       -3.34434752        0.30698645
 C           -1.16833069       -2.90520069        0.42522680
 C            2.22146433       -2.64873410       -0.51985392
 C            0.87844801       -3.05673772       -0.90225390
 C            3.31254126       -0.50424151       -0.59991548
 C            2.83560837       -1.65006719       -1.26241035
 C            2.97289350        1.90328858       -0.83471481
 C            3.55571778        0.66903152       -1.32365032
 C            2.24572804        2.51552800       -1.92231096
 C            0.31123218        2.66635592       -0.48646253
 C            0.90373353        2.83794489       -1.74978523
 C           -1.66557259        2.24264880        0.84955222
 C           -1.08216960        2.71831063       -0.33004238
 C           -3.42584072        0.77263964        1.72131067
 C           -3.00689164        1.85103917        0.84626215
 C           -3.61419644       -1.55213403        0.84501626
 C           -4.13467015       -0.20088493        0.90735127
 C           -1.76157851       -2.20527323       -0.63075354
 C           -3.06338558       -1.74079862       -0.48987796
 C            0.25609122       -2.38685079       -1.94940684
 C           -0.99464443       -1.79674688       -1.73015652
 C            2.46033245       -1.57802285       -2.60320556
 C            1.08287995       -1.89341334       -2.94910730
 C            3.45236007        0.68287726       -2.77016806
 C            2.65912859        1.84389977       -3.14555968
 C            2.88976024       -0.47061689       -3.42648847
 C            0.60100068       -0.85779042       -3.83523536
 C            1.63782945        1.41028200       -4.08358073
 C            1.74411501       -0.03377821       -4.20849919
 C            0.11155731        2.89851851       -2.89115172
 C            0.37152746        1.96428777       -3.97384603
 C           -1.90291509        2.94207369       -1.43365277
 C           -1.32374315        2.97884582       -2.75807193
 C           -3.70918045        1.67816140       -0.41650054
 C           -4.19301959        0.31041791       -0.44537247
 C           -3.51507778       -0.63819038       -1.31547943
 C           -3.11497016        2.16159454       -1.56550916
 C           -1.44709951       -0.75262073       -2.56032675
 C           -0.61353022       -0.23979558       -3.56682220
 C           -0.77494661        1.07610487       -3.99598109
 C           -1.88535541        1.85527261       -3.50028865
 C           -2.67783822       -0.12885635       -2.30160537
 C           -2.84293030        1.21476842       -2.63179365
