   70
C70 / DATE: 7/ 1/2024 / Origin: Program Fullerene / C70 from database
 C            1.29382415       -0.08198476        5.01466085
 C            0.54412461       -1.26309287        4.61371925
 C            1.46083689       -2.15636044        3.95299826
 C            2.58446189       -0.13586877        4.35259793
 C            2.74043177       -1.46799777        3.82385341
 C            2.66166900        0.98220245        3.43164598
 C            0.58693788        1.07991138        4.50713213
 C            1.45990916        1.78883226        3.60007699
 C           -0.62654244       -0.81768435        3.88597024
 C           -0.67846928        0.62785695        3.98849137
 C           -0.97161660       -1.39848106        2.65859954
 C            1.10793646       -2.66361229        2.64082644
 C           -0.09096222       -2.29213739        2.02809185
 C            3.16360990       -1.61135087        2.44756236
 C            2.31899210       -2.62885388        1.84942177
 C            3.16562645        0.79985326        2.14261563
 C            3.49164372       -0.49000584        1.68315853
 C            2.92896672        1.82507817        1.22805741
 C            0.90235238        2.39057893        2.47297856
 C            1.75281704        2.66141744        1.40885557
 C           -1.22496618        1.29790621        2.91268129
 C           -0.47250541        2.26133931        2.22520780
 C           -1.92055195       -0.72347755        1.88055914
 C           -2.18552207        0.61164935        2.19400265
 C           -2.23187261       -1.19831044        0.60338944
 C           -0.20308477       -2.50129631        0.65166125
 C           -1.36039640       -2.09731883       -0.01777248
 C            2.19631323       -2.64191977        0.47014377
 C            0.93546504       -2.86348621       -0.07904884
 C            3.69378087       -0.71132119        0.32119502
 C            3.12271438       -1.91135537       -0.26936550
 C            3.10602693        1.60467215       -0.19436369
 C            3.52340819        0.36629716       -0.63813494
 C            1.19766445        2.94551938        0.09917592
 C            2.02669695        2.28279597       -0.89055864
 C           -1.01280917        2.77277548        1.03638702
 C           -0.17961193        2.94066665       -0.07852425
 C           -2.97097283        1.36595030        1.34737195
 C           -2.38015172        2.58496437        0.83026000
 C           -3.22335059       -0.55156505       -0.14300146
 C           -3.65001577        0.71235102        0.25323559
 C           -3.49864845       -0.97550686       -1.44039989
 C           -1.54200335       -2.44636785       -1.35910859
 C           -2.67029338       -2.00214258       -2.03930791
 C            0.84434257       -3.00228649       -1.45673724
 C           -0.44885255       -2.88215584       -2.10136272
 C            2.85279721       -1.63286391       -1.66884291
 C            2.93251197       -0.19383773       -1.84333034
 C            1.81793117       -2.31275676       -2.29077577
 C            1.40333204        1.67795296       -1.97672089
 C            1.88526702        0.46595332       -2.48657545
 C           -0.68117366        2.72606412       -1.36848907
 C            0.12789887        2.11150088       -2.33163604
 C           -2.94506835        2.81512383       -0.48470456
 C           -3.87724112        1.73130011       -0.75346497
 C           -2.04128175        2.89115194       -1.60760376
 C           -3.80460968        0.01229350       -2.47045000
 C           -3.73850523        1.36145795       -2.14642402
 C           -2.66929878        2.18219745       -2.70826797
 C           -2.56955771       -1.71698329       -3.46294502
 C           -3.20925517       -0.43716203       -3.71336704
 C           -0.20915349       -2.31509462       -3.41910381
 C            1.07168649       -1.63600338       -3.33516167
 C            1.11453135       -0.24331862       -3.41341162
 C           -1.25473680       -1.68951376       -4.07908445
 C           -0.42334472        1.65074973       -3.52345085
 C           -1.86449488        1.66882343       -3.71627957
 C           -2.24385317        0.42551528       -4.36703825
 C            0.09364626        0.41907092       -4.08889617
 C           -1.03538090       -0.34829889       -4.59287455
