   70
C70 / DATE: 7/ 1/2024 / Origin: Program Fullerene / C70 from database
 C            1.43346780       -0.14207772        4.49064919
 C            2.66794686       -0.32946688        3.75273810
 C            2.60510856       -1.62660201        3.09831957
 C            0.58643260       -1.29875930        4.24365051
 C            1.28451548       -2.17974204        3.32423117
 C           -0.73183096       -0.81624494        3.87072563
 C            0.63795628        1.04806927        4.24574961
 C           -0.74107270        0.62250537        4.06522477
 C            1.15185447        2.06986307        3.45202748
 C            3.05030109        0.65245334        2.75412523
 C            2.36492616        1.85690133        2.67182765
 C            3.05476933       -1.46301894        1.72666323
 C            3.37367331       -0.06112122        1.53180712
 C            2.37490426       -2.13267949        0.71053123
 C            0.59078539       -2.68402542        2.23161460
 C            1.29234834       -2.94409003        1.05298850
 C           -1.34760856       -1.36141184        2.74634000
 C           -0.79184566       -2.50103822        2.16906821
 C           -2.25704996       -0.59559443        2.00877918
 C           -1.60158718        1.39284968        3.29802952
 C           -2.48655103        0.72909000        2.35542108
 C            0.24791731        2.88208386        2.65309695
 C           -1.11106560        2.60468731        2.65878406
 C            2.16886709        2.47046209        1.37035811
 C            0.90404918        3.18009832        1.38971968
 C            3.08128591        0.50349482        0.29777191
 C            2.52638192        1.78630679        0.21415187
 C            2.47389188       -1.64488027       -0.59775563
 C            2.96984676       -0.34696044       -0.79649122
 C            1.83679145       -2.33675091       -1.63969244
 C            0.65746719       -3.66957481        0.05565839
 C            0.91438236       -3.33117222       -1.33206578
 C           -1.50482082       -3.15356827        1.17313972
 C           -0.76420111       -3.92551489        0.19367107
 C           -2.71647252       -1.06446942        0.77690755
 C           -2.53296720       -2.41135314        0.46606404
 C           -3.09814086       -0.15750908       -0.22331271
 C           -2.80191979        1.68002543        1.31053303
 C           -1.87124182        2.79020713        1.43771650
 C           -3.10737279        1.21974822        0.03339497
 C            0.15618160        3.23665888        0.21564861
 C           -1.24447618        3.25733592        0.28776630
 C            1.98412515        2.20922316       -1.00065849
 C            0.79185984        2.94420280       -0.99817408
 C            2.94372864        0.23210583       -2.05616459
 C            2.41006283        1.57575299       -2.16771112
 C            1.76565629       -1.77397651       -2.90963701
 C            2.46391728       -0.53828179       -3.17869241
 C            0.47237566       -1.71258984       -3.57437033
 C           -0.35497817       -3.35085586       -2.04549295
 C           -1.38953072       -3.72856003       -1.10156365
 C           -2.52351114       -2.84579167       -0.92148601
 C           -0.61329499       -2.35521239       -2.98578520
 C           -3.28098239       -0.60808231       -1.53031951
 C           -2.80556494       -1.92332826       -1.91299949
 C           -1.87008660       -1.74532053       -3.01878000
 C           -2.99743478        0.28245024       -2.63887459
 C           -1.99734113       -0.36833381       -3.47711083
 C           -2.95667054        2.11980977       -1.02374879
 C           -1.98565044        3.19486734       -0.88654835
 C           -2.90740184        1.64246433       -2.39585163
 C            0.12191953        3.18056980       -2.19472441
 C           -1.31334290        3.35546015       -2.15770740
 C           -1.90233722        2.41578282       -3.09960034
 C            1.60099625        1.63799182       -3.37463293
 C            1.58777303        0.31288641       -3.96565493
 C            0.31618010       -0.37230027       -4.11777882
 C           -0.86328091        0.32937510       -3.89043524
 C            0.42334861        2.36581300       -3.35666837
 C           -0.81636233        1.71866280       -3.76440509
