   70
C70 / DATE: 7/ 1/2024 / Origin: Program Fullerene / C70 from database
 C            1.17879439       -0.09982779        4.42001232
 C            2.37902878       -0.46240627        3.70410672
 C            2.20912796       -1.82215178        3.20907745
 C            0.33097081       -1.28044113        4.46425351
 C            0.83637487       -2.20470792        3.46909544
 C           -1.03579044       -0.82777690        4.35339206
 C            0.36815554        0.98664710        3.90403149
 C           -1.00233847        0.61595917        4.16982630
 C            0.68328355        1.55843397        2.66834940
 C            2.77732321        0.34766035        2.57393709
 C            1.96976720        1.39933650        2.13678251
 C            2.68884044       -1.84863764        1.83574145
 C            3.30288245       -0.56179971        1.57813948
 C            1.88612368       -2.40507344        0.84448322
 C            0.03817541       -2.56479729        2.38611604
 C            0.66221526       -2.97414678        1.20573869
 C           -1.86597531       -1.37294480        3.29667839
 C           -1.33196521       -2.26016554        2.37027575
 C           -1.99676871        0.94383704        3.17732309
 C           -2.67787299       -0.28652210        2.80106051
 C           -0.33552234        2.11384134        1.87525131
 C           -1.68322959        1.84710167        2.17116357
 C            0.00455601        2.77475604        0.68401385
 C            2.25302939        1.93317925        0.88204572
 C            1.35140995        2.82170086        0.30064437
 C            3.34840874       -0.10503166        0.27396679
 C            3.17200828        1.25813207        0.07253393
 C            2.10097046       -2.01804438       -0.48294837
 C            2.99198834       -0.97410178       -0.75642958
 C            1.21784108       -2.44553726       -1.47827508
 C           -0.10839072       -3.58603211        0.22900555
 C            0.25772777       -3.40119549       -1.16253978
 C           -2.05888060       -2.50196112        1.20515864
 C           -1.54720516       -3.44556366        0.31777702
 C           -3.19860707       -0.37729484        1.51384910
 C           -3.00356628       -1.55103175        0.77443883
 C           -2.62928950        1.97817858        1.16927872
 C           -3.44091920        0.81784590        0.83719880
 C           -0.99996118        3.15107201       -0.22431496
 C           -2.27924639        2.64718519       -0.05894146
 C           -0.65293760        3.49639046       -1.52397752
 C            1.72890534        3.49252689       -0.86132678
 C            0.71221381        3.85533936       -1.82045596
 C            3.50711923        1.77588937       -1.16938823
 C            2.86266855        2.99350602       -1.61808802
 C            3.10855186       -0.51511667       -2.06702700
 C            3.54908967        0.85511447       -2.28976916
 C            1.01567209       -1.64201114       -2.59992873
 C            2.02245837       -0.77767094       -2.99344096
 C           -0.28573318       -1.36568881       -3.00649422
 C           -0.96608643       -3.45083567       -1.94714550
 C           -2.08216779       -3.56498010       -1.02202683
 C           -1.25033952       -2.35167587       -2.85080462
 C           -3.54557360       -1.61881462       -0.51142232
 C           -3.10440114       -2.63699311       -1.44326776
 C           -2.62583224       -1.95640847       -2.63819977
 C           -3.65286193        0.81531356       -0.60111766
 C           -2.87079247        1.90554268       -1.16092716
 C           -3.70223222       -0.39409017       -1.27385484
 C           -2.92352565       -0.54496155       -2.49126002
 C           -1.14041123        2.65382798       -2.60665629
 C           -0.66924748       -0.03425213       -3.19766757
 C           -2.10378009        1.69900722       -2.30573887
 C           -1.93792349        0.39659973       -2.78132316
 C            1.05710654        3.23214939       -3.08825658
 C            2.42926003        2.78636912       -2.99296605
 C            2.73423965        1.41755526       -3.35241289
 C            1.64487501        0.48744954       -3.59850305
 C            0.01300422        2.26476182       -3.38999635
 C            0.31520732        0.90848251       -3.50785399
