   70
C70 / DATE: 7/ 1/2024 / Origin: Program Fullerene / C70 from database
 C            1.27644811       -0.08548565        4.45530671
 C            2.60559336       -0.33161875        3.92927850
 C            2.61960701       -1.67151810        3.36944620
 C            0.46580471       -1.26521478        4.19308109
 C            1.26367887       -2.19450117        3.42308723
 C           -0.79981829       -0.82599456        3.64192281
 C            0.53651243        1.07364689        3.98761515
 C           -0.78513320        0.62301771        3.59350087
 C            1.17591759        2.03613365        3.21907801
 C            3.14418192        0.57284305        2.93002254
 C            2.52012810        1.79349820        2.70639198
 C            3.29330845       -1.61531021        2.08304341
 C            3.56722573       -0.21837015        1.78446174
 C            2.83797429       -2.44064520        1.06853659
 C            0.71848785       -2.75303331        2.27210998
 C            1.58545917       -3.15318127        1.25629062
 C           -1.34775768       -1.50837306        2.55915025
 C           -0.63995991       -2.57159507        1.98463517
 C           -2.34465603       -0.86626173        1.81650229
 C           -1.44597165        1.23576759        2.53652392
 C           -2.46951826        0.52654974        1.92358539
 C            0.42376393        2.72538715        2.18361780
 C           -0.83439618        2.27045897        1.81852148
 C            2.59220856        2.38094677        1.38200483
 C            1.35352144        3.10371771        1.14012228
 C            3.35244193        0.27894626        0.49713051
 C            3.14929442        1.65465290        0.33320108
 C            2.84731311       -1.95285757       -0.29778480
 C            3.05378635       -0.60180841       -0.55439634
 C            1.06046608       -3.45476403       -0.06229505
 C            1.79038484       -2.63907392       -1.01828269
 C           -1.18044929       -3.21993158        0.87852879
 C           -0.30483630       -3.60428557       -0.21792960
 C           -2.99320688       -1.56276394        0.79032468
 C           -2.41620758       -2.72837192        0.29461470
 C           -3.97560900       -0.93221903        0.02971059
 C           -3.26925793        1.22321813        1.03338652
 C           -4.17295367        0.49383412        0.17553714
 C           -1.32358939        2.60454043        0.55359496
 C           -2.64200362        2.27164625        0.25126999
 C            0.91057903        3.21204911       -0.17522930
 C           -0.41975376        2.87552513       -0.48493204
 C            2.97433538        2.16427798       -0.94726660
 C            1.88913431        3.10939150       -1.15743017
 C            2.64581596       -0.09130974       -1.78644599
 C            2.92859705        1.24203146       -2.05859030
 C            1.09792811       -1.93865719       -2.00130539
 C            1.66905124       -0.78043849       -2.52469492
 C           -0.92257284       -3.14266785       -1.44660479
 C           -2.32181704       -2.92191522       -1.14545498
 C           -0.24792503       -2.23463595       -2.26240841
 C           -4.06563843       -1.23557785       -1.38813418
 C           -3.05934806       -2.10047640       -1.98076036
 C           -4.10446031        1.09584679       -1.14560189
 C           -3.02126325        2.06335405       -1.13196533
 C           -4.06124390        0.02463503       -2.11331641
 C           -0.80552942        2.64599084       -1.81871689
 C           -2.01595414        2.00111079       -2.09073863
 C            1.50140501        3.02601566       -2.54557781
 C            2.25228604        1.92930300       -3.14018373
 C            0.10689437        2.81509214       -2.85545293
 C            1.07896123       -0.20520398       -3.64338482
 C            1.34207246        1.18084891       -3.97420707
 C            0.06658039        1.87659183       -3.95336266
 C           -0.98123784       -1.44859938       -3.16253887
 C           -2.36659942       -1.33723184       -3.00800033
 C           -2.95613013       -0.00968091       -3.04507890
 C           -2.09632252        1.07701179       -3.14888986
 C           -0.33325218       -0.43567723       -3.87047781
 C           -0.97277569        0.87136945       -3.93769596
