   70
C70 / DATE: 7/ 1/2024 / Origin: Program Fullerene / C70 from database
 C            1.55166715       -0.01477753        4.62933404
 C            0.75134420       -1.21928402        4.53880767
 C            1.21811233       -1.99481615        3.40126588
 C            2.59031176       -0.11008631        3.62604274
 C            2.41827134       -1.35437753        2.89870556
 C            2.56217892        1.11571900        2.85617957
 C            0.69667920        1.10403882        4.26419228
 C            1.27954024        1.74761417        3.10742766
 C           -0.63317474       -0.80612755        4.54703145
 C           -0.65249991        0.60196973        4.16067594
 C           -1.54807976       -1.64832427        3.94103175
 C            0.27353231       -2.48347716        2.50118651
 C           -1.05510919       -2.57142345        2.92114013
 C            0.56354608       -2.49171306        1.13125292
 C            2.64447258       -1.31991136        1.53070736
 C            1.81722497       -2.05056625        0.67556318
 C            2.97487823        1.04653471        1.53817388
 C            3.30249383       -0.20677803        1.01872396
 C            2.46138998        1.99191348        0.66105116
 C            0.47610599        2.05826954        2.00949725
 C            1.11875068        2.35832709        0.80265936
 C           -1.44710040        0.99280916        3.08316778
 C           -0.86843480        1.65521178        1.98565886
 C           -2.74903942       -1.04106310        3.41035766
 C           -2.65230448        0.31875425        2.91266446
 C           -2.10732822       -2.74155934        1.93641203
 C           -3.20756587       -1.87406965        2.31955988
 C           -0.43093906       -2.85623699        0.21511152
 C           -1.77594652       -2.82724396        0.58982921
 C           -0.11005417       -2.99308918       -1.13053476
 C            2.11177906       -2.05323525       -0.69476626
 C            1.19128664       -2.56415156       -1.60022021
 C            3.75249121       -0.26817885       -0.29044314
 C            3.13442380       -1.23778413       -1.17949944
 C            3.08378018        2.10636867       -0.57113268
 C            3.87849444        0.97921606       -1.02155789
 C            2.33398237        2.59716984       -1.70600886
 C            0.35417962        2.66640068       -0.32725160
 C            0.99370489        2.93756775       -1.54881814
 C           -1.60591567        1.83496568        0.81047077
 C           -1.03867395        2.53221573       -0.25762103
 C           -3.32436077        0.35610805        1.63025455
 C           -3.76530399       -0.99571018        1.31190833
 C           -2.80865535        1.14420725        0.61150065
 C           -2.74010619       -2.45582135       -0.34874050
 C           -3.69217643       -1.40964124       -0.00878744
 C           -1.09028691       -2.62612943       -2.14059642
 C           -2.36401808       -2.27194974       -1.74015514
 C            1.00925058       -1.90257351       -2.88593532
 C           -0.41892395       -1.82190134       -3.14231065
 C            2.99353031       -0.61788351       -2.49167926
 C            3.54525697        0.72104028       -2.40796864
 C            2.74023709        1.82701041       -2.87640193
 C            1.82789420       -0.82871029       -3.22658674
 C            1.79258906        1.57145935       -3.85246218
 C            1.30577603        0.20358213       -4.01552836
 C            0.24650753        3.14646309       -2.70475097
 C            0.64446903        2.45387981       -3.91808998
 C           -1.82082012        2.73711213       -1.38888452
 C           -1.19434425        3.09862077       -2.64183223
 C           -3.25234483        0.90342455       -0.68828748
 C           -3.58935274       -0.39942672       -1.04429061
 C           -2.92212695       -1.00566739       -2.18638028
 C           -2.84604754        1.76248208       -1.69604812
 C           -0.96698682       -0.61167458       -3.56070334
 C           -0.13163578        0.27146223       -4.24340555
 C           -0.49100614        1.67068641       -4.36636660
 C           -1.64951218        2.15119753       -3.65250379
 C           -2.19804458       -0.17567187       -3.04038857
 C           -2.49191306        1.18723363       -2.98060731
