   70
C70 / DATE: 7/ 1/2024 / Origin: Program Fullerene / C70 from database
 C            1.31391522       -0.03810269        4.45765691
 C            2.64149461       -0.26268317        3.91852482
 C            2.66748046       -1.59903103        3.35123879
 C            0.50652732       -1.20839496        4.15457347
 C            1.31279187       -2.12498276        3.37692611
 C           -0.74346148       -0.75097883        3.59243999
 C            0.57285392        1.13588409        4.03069773
 C           -0.73463983        0.69994422        3.56685053
 C            1.22903636        2.13886656        3.33198743
 C            3.15745322        0.65422825        2.91730310
 C            2.53457056        1.88042276        2.73111630
 C            3.35459354       -1.52973038        2.07510817
 C            3.53539879       -0.12347579        1.74796988
 C            2.94817533       -2.39245474        1.07282595
 C            0.78714169       -2.66794351        2.20606206
 C            1.67607960       -3.08663290        1.22137744
 C           -1.27383046       -1.40969541        2.49851696
 C           -0.54440301       -2.41783961        1.85424778
 C           -2.27284346       -0.75963626        1.79088707
 C           -1.33920543        1.35594081        2.49018861
 C           -2.18454445        0.62727460        1.63705709
 C            0.46922308        2.94522986        2.39505412
 C           -0.84344685        2.60035359        2.08552055
 C            2.52580843        2.46584959        1.40288782
 C            1.36052903        3.32809469        1.31369805
 C            3.19985419        0.34334879        0.47327571
 C            2.87870167        1.69391163        0.30113488
 C            3.00998633       -1.93749604       -0.29972114
 C            2.99879590       -0.57026246       -0.57157902
 C            1.18209654       -3.37371355       -0.11406626
 C            2.14034016       -2.81555409       -1.05501545
 C           -1.05592886       -2.94862663        0.66518596
 C           -0.17877864       -3.25995153       -0.38276940
 C           -3.01097678       -1.51155599        0.89198916
 C           -2.40385569       -2.72965377        0.38917911
 C           -3.65302018       -0.84879277       -0.22362984
 C           -2.73698285        1.24149373        0.50742332
 C           -3.28734817        0.46228171       -0.51810830
 C           -1.43041104        3.24463827        1.00482962
 C           -2.51662553        2.59553806        0.29957224
 C            0.80777821        3.60052970        0.06590380
 C           -0.56192298        3.85041224        0.00529104
 C            2.53360370        2.16475809       -0.95758658
 C            1.48640732        3.17057020       -1.07797197
 C            2.55931898       -0.12869555       -1.82446315
 C            2.38588140        1.22987379       -2.05437549
 C            1.68816618       -2.39141527       -2.29005485
 C            1.96898551       -1.02836546       -2.71198750
 C           -0.59031872       -3.12505494       -1.71477158
 C            0.32212370       -2.69051419       -2.67568073
 C           -2.90350416       -2.94741670       -0.95205307
 C           -3.77507567       -1.83058089       -1.28535217
 C           -1.94547690       -3.09748063       -2.02470300
 C           -3.47496815       -1.42500400       -2.63871294
 C           -2.39553316       -2.26573094       -3.12882788
 C           -3.20892185        0.89204507       -1.85549536
 C           -3.09732143       -0.04874198       -2.87363559
 C           -2.50854579        3.09487765       -1.05732233
 C           -1.25269188        3.79640079       -1.26867581
 C           -2.67004758        2.14165713       -2.13135529
 C            0.76662460        2.91371552       -2.31973213
 C            1.27146832        1.67387295       -2.87984152
 C           -0.58587858        3.19258575       -2.40551977
 C           -1.48108522        2.19796004       -2.96920417
 C            0.85560902       -0.58214558       -3.53850035
 C           -0.08273640       -1.68421279       -3.64372846
 C           -1.42972662       -1.41128636       -3.80210721
 C           -1.88983181       -0.03815007       -3.68235000
 C            0.39380604        0.72574770       -3.40379364
 C           -0.97873122        1.00367640       -3.49180965
