   70
C70 / DATE: 7/ 1/2024 / Origin: Program Fullerene / C70 from database
 C            1.19249419       -0.25068656        4.67199645
 C            2.48529184       -0.52962203        4.07747503
 C            2.43444086       -1.86131331        3.49858107
 C            0.36039538       -1.43180058        4.50602290
 C            1.12342077       -2.42408062        3.77476531
 C           -0.92202626       -1.00517650        3.97698233
 C            0.43696443        0.90150968        4.20619677
 C           -0.88531443        0.44195551        3.82424520
 C            1.06258984        1.86397639        3.42782676
 C            2.99644166        0.37524721        3.06568908
 C            2.40435148        1.62187841        2.90788789
 C            2.88466772       -1.76932171        2.11792782
 C            3.30785428       -0.40379644        1.87610288
 C            2.17526653       -2.43593414        1.12845867
 C            0.48975356       -3.14614116        2.77433367
 C            1.16566096       -3.32339239        1.50146856
 C           -1.55512521       -1.76551432        2.99520972
 C           -0.91495457       -2.89223220        2.47418093
 C           -2.56166182       -1.15594190        2.25230824
 C           -1.54465197        1.01297834        2.73724050
 C           -2.60284590        0.29678834        2.19954690
 C            0.29885689        2.52784008        2.38358985
 C           -0.89996092        1.97755396        1.94983363
 C            2.48081957        2.26013323        1.60935854
 C            1.24656291        2.99973525        1.40007682
 C            3.09436077        0.16567224        0.62289996
 C            3.01348984        1.55682132        0.53307791
 C            2.21051731       -1.95057084       -0.17924307
 C            2.58580514       -0.62363481       -0.41946737
 C            1.55093093       -2.66797652       -1.17190331
 C            0.14797401       -3.69270171        0.53637759
 C           -1.13312428       -3.27050418        1.08156049
 C            0.40159308       -3.47904379       -0.80478743
 C           -2.88020146       -1.64846286        0.92140953
 C           -2.01099025       -2.52579656        0.29381157
 C           -3.14043051        0.67807965        0.91524628
 C           -3.43057001       -0.53857763        0.17289885
 C           -1.33727123        2.23517478        0.64196314
 C           -2.58510974        1.75112646        0.23204438
 C            0.83540032        3.19743030        0.08926600
 C           -0.47752820        2.86467675       -0.28158722
 C            2.87055097        2.13401081       -0.71901870
 C            1.83813524        3.14301186       -0.87164212
 C            2.38680292       -0.05224965       -1.68212724
 C            2.76689680        1.26964330       -1.87600716
 C            1.23948081       -2.02773733       -2.43804325
 C            1.57276701       -0.69129272       -2.62716434
 C           -0.69079080       -3.05356087       -1.65246347
 C           -1.78630089       -2.40542831       -1.08144202
 C           -0.07741399       -2.49520262       -2.83889306
 C           -3.29676601       -0.50006070       -1.20756101
 C           -2.49529302       -1.46304684       -1.84232654
 C           -2.99092431        1.91992541       -1.08392917
 C           -3.47518772        0.74960775       -1.79744616
 C           -0.87470736        3.02147384       -1.61985981
 C           -2.16507098        2.67506438       -1.99842858
 C            1.48546746        3.18763553       -2.26859058
 C            2.12529644        2.04847296       -2.91398677
 C            0.08577043        3.15323216       -2.62286266
 C            0.89472638        0.04647459       -3.60983214
 C            1.12767174        1.41121133       -3.74538964
 C           -0.00801771        2.31781940       -3.80637409
 C           -0.84789830       -1.68821118       -3.65195172
 C           -2.18021766       -1.32950067       -3.19947675
 C           -0.25365563       -0.48295532       -4.19747846
 C           -3.20651255        0.93930611       -3.20451323
 C           -2.39336826        2.13823821       -3.33504456
 C           -1.24881316        1.81531706       -4.16951894
 C           -2.55664481       -0.12905816       -3.92546390
 C           -1.35012052        0.41150452       -4.53403676
