   70
C70 / DATE: 7/ 1/2024 / Origin: Program Fullerene / C70 from database
 C            1.55815895        0.08061017        4.83477777
 C            0.78463475       -1.13195425        4.64763496
 C            1.66695204       -2.09470667        4.03136744
 C            2.71705088       -0.00262233        3.95907515
 C            2.83999591       -1.37685893        3.54431728
 C            2.57298919        1.01869331        2.93896978
 C            0.74667832        1.18557231        4.37061176
 C            1.51797464        1.91136465        3.38121534
 C           -0.44650536       -0.78034312        3.95448812
 C           -0.54322453        0.66721646        3.95122721
 C           -0.81345884       -1.48473078        2.80783789
 C            1.15685252       -2.86420982        2.91908644
 C           -0.15897540       -2.68709457        2.50176375
 C            2.95861404       -1.66609677        2.12887346
 C            2.18767279       -2.86851273        1.90014374
 C            2.63368621        0.68354827        1.58061645
 C            2.87249375       -0.64372583        1.18320826
 C            2.11297387        1.60195854        0.65715062
 C            0.80626850        2.57834329        2.40164686
 C            1.39316005        2.69567263        1.14782865
 C           -1.14385444        1.29754918        2.87033868
 C           -0.58371743        2.49978002        2.45220471
 C           -1.58563856       -0.83918840        1.82996198
 C           -1.83548498        0.53544884        1.92508482
 C           -2.02966865       -1.55115321        0.71454886
 C           -0.51967438       -3.36781975        1.34870579
 C           -1.60975276       -2.86652259        0.54162102
 C            1.79517365       -3.15275981        0.60199818
 C            0.54510918       -3.74234662        0.43103193
 C            2.62599697       -1.01422805       -0.13866372
 C            2.28381542       -2.34623832       -0.42268568
 C            1.99982956        1.24216843       -0.69059595
 C            2.42513484       -0.02037238       -1.09601979
 C            1.35447819        2.09089106       -1.60173253
 C            0.80124039        3.58443256        0.26229134
 C            0.83436156        3.30210711       -1.15940743
 C           -1.29915079        3.25986007        1.54420777
 C           -0.53847187        4.04121355        0.58632300
 C           -2.44956143        1.20565225        0.86016731
 C           -2.36127400        2.59975654        0.80746171
 C           -2.62896278       -0.87883979       -0.35246464
 C           -2.85173586        0.49663010       -0.27496963
 C           -2.78802456       -1.53340363       -1.57551728
 C           -1.41261731       -3.38665384       -0.80124765
 C           -0.02791531       -3.82371397       -0.90240063
 C           -2.00264070       -2.71857496       -1.86074042
 C            1.98968383       -2.71683935       -1.72969035
 C            0.74472848       -3.42391142       -1.98652102
 C            2.35540285       -0.36458873       -2.43938268
 C            2.18625713       -1.75822744       -2.79510444
 C            0.99884194        1.62466273       -2.87146083
 C            1.50891707        0.41395401       -3.31964515
 C           -0.16586575        2.09664345       -3.47486078
 C           -0.40363580        3.80320358       -1.73860641
 C           -1.30445552        4.10723541       -0.64074821
 C           -2.49647041        3.29280294       -0.46309338
 C           -0.92417581        3.17013198       -2.85661411
 C           -3.29513559        1.18796532       -1.40666271
 C           -2.98913254        2.59969721       -1.55542342
 C           -2.32119974        2.76346710       -2.83708985
 C           -2.83262426       -0.76025002       -2.79952847
 C           -1.11113535        1.13351349       -4.01934416
 C           -3.16333605        0.57965979       -2.72163655
 C           -2.43498415        1.50960329       -3.55921408
 C           -1.23691865       -2.45238669       -3.07214395
 C            0.10725468       -2.79913220       -3.13368193
 C            1.05154864       -1.85681419       -3.69971595
 C            0.60871787       -0.50849688       -3.99545672
 C           -1.68174668       -1.16676132       -3.59878454
 C           -0.75152241       -0.21093029       -4.02693300
