   70
C70 / DATE: 7/ 1/2024 / Origin: Program Fullerene / C70 from database
 C            1.23798587       -0.05925670        4.13700892
 C            2.56222051       -0.40364259        3.67743866
 C            2.55575701       -1.81068485        3.31132501
 C            0.41618207       -1.25783163        4.05592205
 C            1.18128522       -2.27951177        3.37918092
 C           -0.85549842       -0.87257910        3.49680155
 C            0.52245062        1.00776062        3.45983235
 C           -0.84818773        0.56626977        3.31729838
 C            1.11517200        1.68865658        2.39796787
 C            3.11398717        0.33536477        2.56392092
 C            2.46582198        1.46928156        2.08204433
 C            3.27918268       -1.95316387        2.05759153
 C            3.62759839       -0.61877421        1.59578422
 C            2.81959765       -2.87963810        1.13702739
 C            0.64130745       -2.92407129        2.26793068
 C            1.53628705       -3.51780289        1.37905251
 C           -1.42892753       -1.64346556        2.49565520
 C           -0.67880474       -2.64989611        1.85695549
 C           -2.52784157       -1.09911672        1.84078228
 C           -1.61321379        1.08348216        2.28332621
 C           -2.64391575        0.29783063        1.77793013
 C            0.28653324        2.35999596        1.48896988
 C           -1.09739066        2.11260644        1.48946646
 C            0.86036799        3.16781965        0.50524497
 C            2.96430183        1.99003752        0.89639971
 C            2.19270914        2.97134037        0.16701817
 C            3.53434019       -0.29157724        0.24214790
 C            3.52331933        1.06080073       -0.07584671
 C            2.85436450       -2.53909013       -0.27334033
 C            2.95063010       -1.20047450       -0.64622094
 C            1.06452614       -4.00498591        0.10485372
 C            1.88355899       -3.39015339       -0.93018314
 C           -1.19646620       -3.27484495        0.70520123
 C           -0.31886146       -3.78913441       -0.24367143
 C           -3.21247904       -1.90929012        0.94886692
 C           -2.45890870       -2.91611886        0.23856255
 C           -4.15080196       -1.33153465        0.00698671
 C           -3.55825273        0.90252598        0.92691503
 C           -4.36101402        0.09740324        0.02829619
 C           -1.92492020        2.69935371        0.52030661
 C           -3.14027481        2.08597365        0.19953384
 C            0.04659770        3.84842333       -0.38991506
 C           -1.36660839        3.53919413       -0.43946874
 C            0.50600681        4.03592890       -1.75989675
 C            2.55887541        2.83386879       -1.23282778
 C            3.08160572        1.48531273       -1.38907492
 C            1.70555200        3.34393915       -2.19853792
 C            2.23200964       -0.73338827       -1.75901500
 C            2.41478485        0.57822513       -2.20634825
 C            0.98947777       -2.80021170       -1.90263661
 C           -0.35634296       -3.23603921       -1.58774940
 C            1.17480470       -1.48521444       -2.28645283
 C           -2.59568811       -2.61118366       -1.17824509
 C           -3.69618210       -1.68850102       -1.32856361
 C           -1.43754276       -2.42382013       -1.92351822
 C           -4.12971021        0.59043994       -1.31851737
 C           -3.44597926        1.86020009       -1.20641480
 C           -3.46836186       -0.46066387       -2.05635672
 C           -1.71473576        3.30969874       -1.83198854
 C           -0.57810940        3.66255182       -2.65223769
 C           -2.46050386        2.17671238       -2.13063284
 C            1.34068255        2.49322381       -3.31750789
 C            1.59988395        1.06490982       -3.22885596
 C           -0.07820833        2.67401372       -3.57877397
 C            0.11009209       -0.83243807       -2.89083462
 C           -1.19797130       -1.17638002       -2.52872554
 C           -2.20406743       -0.19528539       -2.57245209
 C           -1.86185273        1.13113469       -2.85751093
 C            0.35769367        0.37341164       -3.52790908
 C           -0.69993022        1.36207318       -3.58931570
