   70
C70 / DATE: 7/ 1/2024 / Origin: Program Fullerene / C70 from database
 C            1.10183289        0.00868359        4.72410053
 C            2.37221573       -0.36031409        4.15203661
 C            2.30913086       -1.77956579        3.83505961
 C            0.27805529       -1.19235458        4.75503818
 C            0.90665646       -2.14694882        3.86852254
 C           -1.07640217       -0.78393446        4.47571586
 C            0.31789535        1.03102537        4.06337915
 C           -1.05381482        0.66090682        4.31347577
 C            0.66724947        1.46475607        2.77805400
 C            2.80392520        0.30970043        2.94645749
 C            1.92434216        1.14323981        2.24457142
 C            3.04605261       -1.97793856        2.60042686
 C            3.56901658       -0.67625166        2.21006898
 C            2.49052259       -2.79902567        1.62689003
 C            0.28098944       -2.51509452        2.67384803
 C            1.06411672       -3.09412260        1.68021354
 C           -1.73324056       -1.31895668        3.29946880
 C           -0.99139419       -2.01586062        2.34854972
 C           -2.01956842        0.97878562        3.29648073
 C           -2.61653466       -0.26765208        2.84534848
 C           -0.32692025        2.00184937        1.94306394
 C           -1.67842609        1.89802156        2.31830707
 C            0.00183417        2.38588304        0.63376051
 C            2.20227169        1.41781469        0.90291806
 C            1.24094422        2.02289334        0.09310447
 C            3.82447075       -0.42401132        0.87451753
 C            3.29524906        0.79912821        0.30095212
 C            2.84550942       -2.58419284        0.23469762
 C            3.60493282       -1.47544650       -0.10761735
 C            0.57125881       -3.15005525        0.31970736
 C            1.68982756       -2.92595363       -0.57864385
 C           -1.42151377       -1.98184446        1.01420022
 C           -0.65111233       -2.57650415        0.00779709
 C           -3.08551657       -0.29857478        1.53851381
 C           -2.59351678       -1.28319895        0.67652635
 C           -2.65052311        2.08751926        1.35225608
 C           -3.45299734        0.92999554        0.99471667
 C           -0.97574557        2.96079358       -0.18636213
 C           -2.31422479        2.77514187        0.13199455
 C           -0.65819732        3.33210968       -1.48858217
 C            1.48964546        2.17593426       -1.27908645
 C            0.60730892        2.91542727       -2.05766062
 C            3.29709408        0.61203875       -1.13262233
 C            3.34979106       -0.82051731       -1.37510661
 C            2.43452339        1.36517130       -1.91400489
 C            1.45558168       -2.24496894       -1.77165865
 C            2.42687491       -1.36031665       -2.26380406
 C           -0.92138959       -2.29183987       -1.32720636
 C            0.13695868       -2.15204583       -2.23190605
 C           -3.04209939       -1.29716887       -0.64543309
 C           -2.19878663       -1.87479776       -1.67362883
 C           -3.77322623        1.02982143       -0.41596270
 C           -3.23263754        2.29515102       -0.88864518
 C           -3.66231864       -0.10398229       -1.20589400
 C           -1.67540864        3.19808092       -2.52144027
 C           -2.87489553        2.43795783       -2.22058329
 C            0.37235679        2.52518941       -3.44171357
 C           -1.05529281        2.61092960       -3.69367958
 C            2.15448399        0.87192759       -3.18630115
 C            2.11618489       -0.57126192       -3.36619703
 C            1.08166741        1.45557806       -3.96864026
 C           -0.10252598       -1.65938177       -3.51135507
 C            0.93973915       -0.88664696       -4.14770123
 C            0.35622684        0.36458565       -4.60278587
 C           -2.41309788       -1.13319887       -2.90504921
 C           -3.23361601        0.02435756       -2.58956411
 C           -2.89671850        1.27590955       -3.09918291
 C           -1.79036409        1.40263793       -4.03504515
 C           -1.37041095       -1.01640048       -3.81187300
 C           -1.08429994        0.27138354       -4.42980277
