   70
C70 / DATE: 7/ 1/2024 / Origin: Program Fullerene / C70 from database
 C            1.59463462       -0.03483539        4.68544452
 C            0.77904697       -1.20198461        4.41155880
 C            1.39913883       -1.95201852        3.33106671
 C            2.70998806       -0.05153655        3.75953603
 C            2.57101225       -1.21359825        2.89685226
 C            2.78287877        1.25595103        3.13851834
 C            0.79431606        1.13843355        4.38069590
 C            1.52375907        1.93526943        3.40816552
 C           -0.58806889       -0.75295723        4.23219829
 C           -0.54272852        0.68808631        4.03595479
 C           -1.40332684       -1.50579514        3.40406765
 C            0.57271739       -2.53018370        2.37349217
 C           -0.79467072       -2.56720184        2.61870426
 C            1.01079491       -2.61805246        1.05298372
 C            2.80893566       -1.06228281        1.53441192
 C            2.09288994       -1.83887136        0.62163839
 C            3.30345407        1.32995055        1.85858029
 C            3.43952443        0.10035347        1.08821752
 C            2.77123094        2.32599028        0.95078582
 C            0.81622521        2.50151010        2.34767701
 C            1.49381922        2.83770018        1.17040143
 C           -1.15673585        1.24652558        2.91759307
 C           -0.57276175        2.36355772        2.32013438
 C           -2.32656803       -0.82066758        2.51769412
 C           -2.10946303        0.51160231        2.20426777
 C           -1.69342841       -2.83914517        1.51751975
 C           -2.64801920       -1.74126978        1.44732123
 C            0.20084231       -3.25193486        0.10464020
 C           -1.18443421       -3.33093463        0.32418510
 C            0.72274109       -3.44709305       -1.17418722
 C            2.29359962       -1.63578795       -0.74393688
 C            1.74591880       -2.53436389       -1.64643792
 C            3.35993443        0.46326307       -0.31870580
 C            3.14001724        1.89878470       -0.38318185
 C            2.67872024       -0.37562109       -1.19421747
 C            2.44213196        2.41881893       -1.45663622
 C            0.77915075        3.37322322        0.09466211
 C            1.30687671        3.28905980       -1.19737718
 C           -1.29274724        3.04083807        1.34792811
 C           -0.56617285        3.68385872        0.27105340
 C           -2.58926399        1.00899958        0.99385830
 C           -2.43317837        2.36881529        0.75461543
 C           -2.99274766       -1.24726742        0.19066845
 C           -2.85526041        0.12555076       -0.06852608
 C           -2.05615054       -3.29174448       -0.75859946
 C           -2.95252596       -2.15210870       -0.86823749
 C           -0.15992990       -3.73330014       -2.29056995
 C           -1.58477414       -3.63066656       -2.08274939
 C            1.33688989       -2.04640760       -2.95080901
 C            0.19863009       -2.84129134       -3.38189133
 C            2.10197586        0.15167812       -2.35461590
 C            2.06592187        1.53291289       -2.54294417
 C            1.34198786       -0.67437656       -3.18625024
 C            0.42097199        3.19437825       -2.35069524
 C            0.92378604        2.13079949       -3.20892130
 C           -1.45524165        3.73443205       -0.87698981
 C           -2.60080329        2.88572038       -0.58369477
 C           -0.94775386        3.35941232       -2.18284897
 C           -2.85183267        0.58610591       -1.39755827
 C           -2.74616436        1.94684053       -1.67151953
 C           -1.86609007        2.38037338       -2.74225986
 C           -2.87289569       -1.66624370       -2.22966588
 C           -2.10631542       -2.63347309       -3.00257828
 C           -1.00601922       -2.16177463       -3.82542397
 C           -2.66663506       -0.31312707       -2.44796726
 C            0.33741997       -0.11777541       -3.98103964
 C            0.03480225        1.30226161       -3.87753742
 C           -1.39713017        1.42900671       -3.63696785
 C           -0.93447193       -0.80786202       -4.11963246
 C           -1.94237551        0.08349030       -3.57191871
