   70
C70 / DATE: 7/ 1/2024 / Origin: Program Fullerene / C70 from database
 C            1.12086862       -0.13277832        4.94962172
 C            2.43904012       -0.49179067        4.46355433
 C            2.29227290       -1.68543763        3.64096781
 C            0.24829310       -1.26164085        4.68893593
 C            0.89235672       -2.07456848        3.67290527
 C           -1.06646937       -0.72581555        4.40809923
 C            0.46490929        1.04559583        4.40158772
 C           -0.93911115        0.71887857        4.26464378
 C            1.08953251        1.76874970        3.38835720
 C            3.16794683        0.48537890        3.68238218
 C            2.47558734        1.68207238        3.24249553
 C            2.90988929       -1.41529578        2.35342553
 C            3.64564930       -0.17798755        2.47976429
 C            2.16605110       -1.62562224        1.19948780
 C            0.23145793       -2.30406017        2.46670592
 C            0.97383500       -2.34153007        1.28339444
 C           -1.76501991       -1.20282775        3.23359775
 C           -1.15465905       -2.12875156        2.38969726
 C           -1.62979868        1.09918645        3.04386784
 C           -2.39192593       -0.05324199        2.61651997
 C            0.32384901        2.32801599        2.35624531
 C           -0.95491379        1.83356078        2.07810671
 C            0.96074031        3.11098172        1.40181864
 C            3.06876624        2.02751477        1.96870276
 C            3.55610616        0.78346449        1.39619313
 C            2.37481269        2.88400347        1.13725445
 C            2.42621508       -0.86855627        0.05212086
 C            3.04283228        0.38065741        0.16307795
 C            1.74954954       -1.19705459       -1.12219700
 C            0.33453160       -2.70449471        0.10517874
 C            0.89669392       -2.29812251       -1.10534168
 C           -1.77151586       -2.35510193        1.16107557
 C           -1.02899843       -2.98101499        0.16440742
 C           -2.71891528       -0.17679137        1.27713827
 C           -2.77677653       -1.46660035        0.77276409
 C           -1.41660046        1.78925096        0.75609007
 C           -2.38832842        0.85074028        0.38916729
 C            0.31576854        3.33022346        0.11508269
 C           -0.83577720        2.61092797       -0.21105854
 C            2.47734620        2.66607337       -0.28815244
 C            2.71536817        1.37276784       -0.75825958
 C            1.38612692        3.41959014       -0.86184938
 C            1.67968499       -0.27773855       -2.17835012
 C            2.19314948        1.01589503       -2.00159363
 C            0.98709628       -0.61825017       -3.35493316
 C            0.33519203       -2.73851191       -2.29228077
 C            0.32721609       -1.84606971       -3.43496176
 C           -1.68926388       -3.37900109       -0.99218475
 C           -0.94822927       -3.41159022       -2.23968594
 C           -3.37013407       -1.63246531       -0.46604668
 C           -2.98070969       -2.77871427       -1.26392202
 C           -2.71787543        0.68221502       -0.96063495
 C           -3.40776031       -0.47612108       -1.34300154
 C           -1.16919486        2.44943931       -1.56132342
 C           -2.11220242        1.48052229       -1.93594279
 C            1.07631731        3.17358476       -2.17999218
 C            1.74032817        2.05257458       -2.81530586
 C           -0.31726346        3.00835940       -2.52015861
 C            0.62848543        0.37333432       -4.26834316
 C            0.96340650        1.74999952       -3.99516982
 C           -0.29295199        2.48057099       -3.86710851
 C           -2.32007368        1.17873514       -3.28684149
 C           -0.72751609        0.38837972       -4.78469888
 C           -1.35381702        1.59737692       -4.27801551
 C           -1.00079740       -1.90439583       -4.03725107
 C           -1.79341234       -2.85312262       -3.28141432
 C           -3.01543842       -2.38281566       -2.65939448
 C           -3.32455860       -0.96232167       -2.71134711
 C           -1.59708139       -0.71913930       -4.44673922
 C           -2.70018260       -0.16927871       -3.66093510
