   70
C70 / DATE: 7/ 1/2024 / Origin: Program Fullerene / C70 from database
 C            1.29535017       -0.14249534        4.27994706
 C            2.51661135       -0.46612212        3.58667119
 C            2.45478184       -1.86707971        3.19579976
 C            0.45796745       -1.33472586        4.29674919
 C            1.13923551       -2.37085239        3.54390092
 C           -0.87724885       -0.92696418        3.89235281
 C            0.47995996        0.94552907        3.77902807
 C           -0.89540681        0.52329256        3.95369234
 C            0.83350550        1.61544107        2.60286709
 C            2.86757978        0.29697583        2.40714117
 C            2.04129922        1.32683766        1.94880335
 C            2.90588453       -1.95625701        1.81596929
 C            3.39335446       -0.64445456        1.43975295
 C            2.16055021       -2.67838120        0.88862989
 C            0.42719331       -3.09394313        2.59784155
 C            1.04889476       -3.40564509        1.32116838
 C           -1.50066718       -1.56897292        2.82105609
 C           -0.96431699       -2.75544169        2.32777068
 C           -2.44668363       -0.87100417        2.06503786
 C           -1.87377004        1.19530976        3.24922948
 C           -2.81048839        0.41510752        2.46565955
 C           -0.14988108        2.35925122        1.94362638
 C           -1.46929084        2.29798949        2.39954320
 C            0.12344069        2.93439124        0.70134077
 C            2.23929761        1.78008185        0.64165910
 C            1.36345984        2.72363079        0.09857174
 C            3.34685009       -0.28273066        0.10650847
 C            3.09162390        1.04902051       -0.19552495
 C            2.30391834       -2.37583954       -0.46900521
 C            3.04884054       -1.25365377       -0.84828216
 C            1.47228898       -2.99739598       -1.39996916
 C           -0.02859425       -3.69572221        0.39227721
 C           -1.25272989       -3.15386835        0.96097619
 C            0.20252817       -3.54910705       -0.96345437
 C           -2.80033873       -1.32011816        0.78684077
 C           -2.07563136       -2.35165966        0.17742288
 C           -3.73193884       -0.59723369        0.04486659
 C           -3.40514306        1.32910283        1.50557185
 C           -2.56314334        2.51814176        1.46993683
 C           -3.92485399        0.81363452        0.32828492
 C           -0.91743945        3.48890742       -0.04756788
 C           -2.29216362        3.13796124        0.26149042
 C           -0.81173773        3.53572357       -1.49410989
 C            1.57858576        3.20761153       -1.19203691
 C            0.43819902        3.40527528       -2.06742564
 C            3.34899099        1.48262688       -1.48795035
 C            2.62407381        2.62033580       -2.00763134
 C            3.12258643       -0.90023058       -2.19551165
 C            3.41081260        0.48468454       -2.54005093
 C            1.25260318       -2.38232180       -2.69850195
 C            2.08802260       -1.35828587       -3.10620399
 C           -0.83407318       -2.96731289       -1.79790199
 C           -1.97731494       -2.42508205       -1.21934860
 C           -0.18316334       -2.22957088       -2.86857997
 C           -3.75995431       -0.75617917       -1.39254524
 C           -2.74294756       -1.57690194       -2.01067252
 C           -3.75187479        1.54279631       -0.91899446
 C           -2.90392737        2.64186293       -0.96317855
 C           -1.90319478        2.73110745       -2.01694390
 C           -3.68642776        0.56706844       -1.99093682
 C           -0.71726712       -1.00060279       -3.25830963
 C           -2.06932606       -0.77542604       -3.02271234
 C           -1.61933386        1.61453261       -2.80772659
 C           -2.54722657        0.58496038       -2.89453417
 C            0.59545470        2.45518185       -3.14946667
 C            2.01801982        2.21773087       -3.27000216
 C            2.47377378        0.88357945       -3.57828639
 C            1.49358019       -0.17561457       -3.70024524
 C           -0.31091647        1.39726836       -3.24601104
 C            0.13929706        0.08424445       -3.47836331
