   70
C70 / DATE: 7/ 1/2024 / Origin: Program Fullerene / C70 from database
 C            1.45532001       -0.00274570        4.62936329
 C            0.66737223       -1.19538582        4.39210806
 C            1.35793263       -2.00899754        3.40502030
 C            2.61248582       -0.05873094        3.75433373
 C            2.54989281       -1.28750298        2.99298213
 C            2.66695649        1.18456218        3.01989154
 C            0.65117373        1.13820846        4.22390761
 C            1.42891544        1.90765336        3.28327505
 C           -0.68850199       -0.77346151        4.10108849
 C           -0.63893374        0.64824209        3.79317570
 C           -1.45126205       -1.59231382        3.28734279
 C            0.59857676       -2.65849274        2.43482192
 C           -0.79074894       -2.67931855        2.58080358
 C            1.15812150       -2.88979825        1.17481924
 C            2.86047529       -1.24229881        1.64048571
 C            2.33246884       -2.22587875        0.80525137
 C            3.14414511        1.16900616        1.71248100
 C            3.37677762       -0.06233901        1.08479016
 C            2.84613513        2.27895576        0.92735565
 C            0.78927370        2.51120601        2.20708198
 C            1.61653403        2.99989682        1.20926600
 C           -1.16240029        1.09945712        2.58087011
 C           -0.51955932        2.12663757        1.86924103
 C           -2.35677902       -0.97822323        2.33638941
 C           -2.16255453        0.34914708        1.95926746
 C           -1.63290150       -3.01976727        1.44596277
 C           -2.62434470       -1.96469320        1.30540818
 C            0.40325966       -3.55115467        0.20651988
 C           -1.04598200       -3.54490313        0.30822461
 C            0.74756803       -3.41910085       -1.20025676
 C            2.82136490       -2.34900415       -0.49144195
 C            1.93506002       -2.79866996       -1.54809112
 C            3.80421309       -0.07143203       -0.24257929
 C            3.62400573       -1.27289691       -1.03675172
 C            3.01511902        2.22319926       -0.51545836
 C            3.48885566        1.05975994       -1.09764275
 C            1.04265888        3.41490534       -0.04582235
 C            1.88127224        2.90466646       -1.11718873
 C           -1.09261181        2.58694668        0.67291677
 C           -0.32955079        3.35958347       -0.21883699
 C           -2.68363412        0.77762365        0.74227774
 C           -2.29910401        2.02037510        0.24189934
 C           -2.96993793       -1.50899335        0.03976720
 C           -3.28984811       -0.15899006       -0.10186017
 C           -1.58046940       -3.18220194       -0.99256424
 C           -0.46676715       -3.06812020       -1.91816450
 C           -2.61210054       -2.25374406       -1.09106378
 C           -0.46074418       -2.00621321       -2.82110266
 C            1.90292514       -1.75248372       -2.55509013
 C            3.03261876       -0.88342019       -2.30979038
 C            2.81187662        0.54479991       -2.27596831
 C            0.67599009       -1.20094769       -2.91212033
 C            1.25441742        2.36465844       -2.23826480
 C            1.56147839        1.05544754       -2.61628804
 C            0.53831033        0.19110372       -3.04180972
 C           -0.77113112        3.51495488       -1.52622553
 C            0.01642936        2.89326840       -2.58153192
 C           -2.94128298        2.52868150       -0.88510226
 C           -2.16569882        3.29979766       -1.82757064
 C           -3.90126124        0.26092051       -1.27493788
 C           -3.79774695        1.65301417       -1.66379178
 C           -2.83821270       -1.70352890       -2.34966296
 C           -1.68838383       -1.49281715       -3.21941133
 C           -3.69427568       -0.53856588       -2.46275585
 C           -0.67987273        0.72514190       -3.47478980
 C           -0.89359123        2.09936114       -3.37865950
 C           -2.22665393        2.61517268       -3.10742347
 C           -3.33857315        1.69295757       -3.04682119
 C           -1.75664679       -0.13014038       -3.70682708
 C           -3.11791321        0.32796398       -3.47472154
