   70
C70 / DATE: 7/ 1/2024 / Origin: Program Fullerene / C70 from database
 C            1.26809560       -0.05437021        4.50633009
 C            2.60093597       -0.28622679        3.98370830
 C            2.63745463       -1.63654886        3.45228687
 C            0.46196098       -1.23081655        4.21535770
 C            1.28323133       -2.16502982        3.47608515
 C           -0.78064837       -0.78584171        3.61968902
 C            0.53059161        1.11148137        4.05432664
 C           -0.78100108        0.66493360        3.62337679
 C            1.18052140        2.09050568        3.31726571
 C            3.12119059        0.60616582        2.96276956
 C            2.49099133        1.81970806        2.73189887
 C            3.34150846       -1.59947533        2.18270317
 C            3.53005380       -0.20168572        1.82483648
 C            2.94607031       -2.48714481        1.19463204
 C            0.77508831       -2.73923730        2.31512520
 C            1.68057146       -3.18507023        1.35322265
 C           -1.27200356       -1.44062481        2.49339989
 C           -0.55952378       -2.51742217        1.95218474
 C           -2.22526936       -0.78123400        1.71028993
 C           -1.42718508        1.31182235        2.57741562
 C           -2.39247534        0.60069272        1.87713387
 C            0.42060132        2.85608565        2.34423572
 C           -0.86302683        2.44804334        1.98315613
 C            2.47807903        2.35474899        1.38428529
 C            1.34767108        3.25941098        1.30467536
 C            3.23175168        0.21938544        0.52605777
 C            2.75629126        1.52016780        0.30255470
 C            3.02373005       -2.07177229       -0.19285245
 C            3.20093230       -0.72628505       -0.50353220
 C            1.21001796       -3.54328712        0.02674848
 C            2.04040568       -2.84313785       -0.93912847
 C           -1.06593680       -3.16091196        0.82727650
 C           -0.15065940       -3.63485702       -0.19798690
 C           -2.81670862       -1.45022449        0.63095315
 C           -2.23325346       -2.61650618        0.15709651
 C           -3.69200108       -0.77807980       -0.21513168
 C           -3.22174858        1.31466734        1.02989016
 C           -4.01352291        0.60563893        0.05201143
 C           -1.42350489        2.95110144        0.80174615
 C           -2.68136212        2.50451380        0.40263706
 C            0.84235354        3.57462237        0.05642757
 C           -0.59694566        3.55082871       -0.14739888
 C            2.33481136        1.90635789       -0.97293468
 C            1.45329624        2.97538962       -1.11755631
 C            2.92500243       -0.31922847       -1.80199296
 C            2.52799648        1.05228179       -2.04907285
 C            1.46478347       -2.27450744       -2.07372636
 C            2.10474070       -1.17587718       -2.64422319
 C           -0.67983523       -3.22906412       -1.48641007
 C           -2.04425671       -2.77575913       -1.27699173
 C            0.12889498       -2.55013254       -2.39478581
 C           -3.53758814       -0.93238353       -1.65470615
 C           -2.58623318       -1.83135386       -2.14577943
 C           -3.93572738        1.33829659       -1.19988469
 C           -2.99914308        2.43287047       -1.01692310
 C           -3.69564234        0.38434422       -2.26294258
 C           -0.83166129        3.30085871       -1.56148862
 C            0.44242694        2.93317309       -2.16232556
 C           -1.99128350        2.64123526       -1.95682625
 C            1.57055542        1.05195645       -3.14766736
 C            1.39949445       -0.32790681       -3.58477658
 C            0.47877075        1.92207968       -3.11639250
 C           -0.49237377       -1.86977305       -3.44046083
 C           -1.90976614       -1.55034798       -3.33329902
 C            0.17329752       -0.74274515       -4.07363366
 C           -2.86420080        0.75482696       -3.30677780
 C           -1.97851859        1.90239589       -3.14218475
 C           -0.70392010        1.57421727       -3.76419773
 C           -2.12715218       -0.28024504       -4.00129501
 C           -0.83009106        0.26030612       -4.36850415
