   70
C70 / DATE: 7/ 1/2024 / Origin: Program Fullerene / C70 from database
 C            1.48897022       -0.10520568        5.06622899
 C            0.66544814       -1.28892899        5.21687829
 C            1.21366075       -2.32103197        4.35497861
 C            2.52436901       -0.40647473        4.09289658
 C            2.28969738       -1.73566963        3.57264156
 C            2.55435033        0.68600162        3.15146259
 C            0.66016908        0.94301654        4.49533571
 C            1.40320651        1.53142941        3.40183425
 C           -0.65936998       -0.97328387        4.71279512
 C           -0.63990664        0.38160915        4.19695295
 C            0.10416278       -2.92136167        3.64296937
 C           -1.04240957       -2.03664772        3.80726497
 C            0.35128838       -3.43183485        2.37584939
 C            2.29198308       -1.92725247        2.18951222
 C            1.53611004       -2.97429767        1.66131552
 C            2.83795835        0.41702425        1.82356556
 C            2.71334126       -0.89468821        1.33880254
 C            2.60349097        1.45180472        0.93042927
 C            0.70749245        1.97944019        2.28346500
 C            1.45291681        2.22074397        1.12837681
 C           -1.18150477        0.61583284        2.93661436
 C           -0.63483440        1.61354526        2.12843324
 C           -1.78251242       -1.71283300        2.67625949
 C           -1.97740793       -0.36301840        2.34423612
 C           -0.73729934       -3.44676025        1.41551438
 C           -1.86177663       -2.66647039        1.66578823
 C            1.22923121       -2.99220019        0.23908313
 C           -0.14951307       -3.41346843        0.08509559
 C            2.64732656       -1.08356615       -0.04896268
 C            1.71158024       -1.97774966       -0.56975718
 C            3.09124534        1.28598880       -0.35111428
 C            3.12192799       -0.06635080       -0.87135552
 C            2.61781578        2.15567822       -1.40517539
 C            0.79562343        2.76845161        0.02718040
 C            1.49291077        2.93645475       -1.17382555
 C           -1.25737478        1.90924750        0.91815721
 C           -0.60011505        2.75209691        0.02955226
 C           -2.65785396       -0.05384601        1.16568188
 C           -2.30313925        1.10185435        0.45043900
 C           -2.72419115       -2.42121595        0.61138167
 C           -3.30309924       -1.09820509        0.51225343
 C           -0.91240278       -2.89342295       -0.95576883
 C           -2.27934066       -2.76276482       -0.72668273
 C            1.02713391       -1.66148689       -1.74604205
 C           -0.29916696       -2.08832852       -1.92801542
 C            2.68542336       -0.00343914       -2.25588978
 C            2.71290675        1.39962814       -2.64017404
 C            1.62612256       -0.80447859       -2.66963313
 C            1.96766477        1.81559087       -3.73377914
 C            0.85569809        3.51565755       -2.26708997
 C            1.15463899        3.01445961       -3.60064441
 C           -1.30250034        3.23213024       -1.06175517
 C           -0.57089383        3.75434117       -2.19931817
 C           -2.86284234        1.35635201       -0.81571851
 C           -2.40559310        2.43891702       -1.56401354
 C           -3.72801244       -0.93450991       -0.85937651
 C           -3.08495241       -1.98375381       -1.63897795
 C           -3.46170491        0.32066013       -1.52233303
 C           -1.07486465       -1.54446255       -2.96345312
 C           -2.43552508       -1.34985799       -2.76209927
 C           -2.95730186        0.00219117       -2.84723556
 C            0.94739701       -0.47086019       -3.83476414
 C            1.18376668        0.82708704       -4.45264223
 C           -0.47147430       -0.74238572       -3.92199474
 C           -0.10646286        2.78402738       -4.28646109
 C           -1.17463176        3.21174964       -3.40617412
 C           -2.18520644        2.25252728       -2.99218063
 C           -2.20146702        0.95753788       -3.51752576
 C           -0.10852235        1.41767144       -4.76555732
 C           -1.13185477        0.50136423       -4.29373473
