   70
C70 / DATE: 7/ 1/2024 / Origin: Program Fullerene / C70 from database
 C            1.32816901        0.11335815        4.82759851
 C            0.56690092       -1.10348415        4.61818958
 C            1.33200586       -1.97765600        3.74638876
 C            2.56294649       -0.00294835        4.07549625
 C            2.56541657       -1.28641109        3.39542462
 C            2.70021348        1.19429205        3.27494909
 C            0.56772031        1.20942414        4.25092357
 C            1.40705470        1.86219425        3.26622781
 C           -0.76491471       -0.72023345        4.20148077
 C           -0.71158301        0.68337944        3.82020017
 C           -1.45879876       -1.59280315        3.38045657
 C            0.66041983       -2.70578625        2.76608059
 C           -0.73497702       -2.68173212        2.73365138
 C            1.36399617       -3.09947202        1.63259389
 C            3.03454410       -1.35566401        2.08394040
 C            2.57517236       -2.38296525        1.26354398
 C            3.38647116        1.09379092        2.07770385
 C            3.62205748       -0.22826517        1.50418655
 C            2.98816978        1.95502872        0.98265921
 C            0.84963466        2.23019267        2.04279949
 C            1.69852973        2.48492561        0.96620498
 C           -1.20790659        1.06074731        2.57470527
 C           -0.50639923        1.99127950        1.79806792
 C           -2.35797735       -1.04006267        2.38631963
 C           -2.19670343        0.27847730        1.97626558
 C           -1.44328397       -2.99760525        1.50011445
 C           -2.55042500       -2.05873059        1.37686783
 C            0.65441493       -3.43849774        0.40824740
 C           -0.73578145       -3.36729971        0.35861453
 C            2.57053214       -2.21256067       -0.18254705
 C            1.43478985       -2.93721006       -0.71433230
 C            3.61798703       -0.07517265        0.05409191
 C            3.51070539        1.34718024       -0.22351741
 C            2.91152453       -0.98465760       -0.73014503
 C            2.97887297        1.75015843       -1.43315041
 C            1.15017476        2.87778821       -0.25367631
 C            1.91553286        2.73507977       -1.41250681
 C           -1.05731017        2.40631843        0.58647218
 C           -0.23306959        3.01572983       -0.36435548
 C           -2.69107467        0.65317422        0.73069984
 C           -2.28673258        1.87413346        0.19757135
 C           -2.95662589       -1.66344272        0.11087527
 C           -3.25426084       -0.31813090       -0.10680761
 C           -1.35217778       -3.22140994       -0.88235451
 C           -2.58207342       -2.45300146       -0.97092478
 C            0.76994550       -2.44687609       -1.82981832
 C           -0.54274813       -2.86145021       -2.03435116
 C            2.29175936       -0.55312742       -1.90724348
 C            2.55972195        0.73304578       -2.37639529
 C            1.23976892       -1.29328909       -2.46576999
 C            1.25493827        2.65405619       -2.70337829
 C            1.63678800        1.37770762       -3.29563836
 C           -0.77143671        3.41893060       -1.58496327
 C           -0.05489457        3.09717960       -2.80662369
 C           -2.93048321        2.37158755       -0.92801845
 C           -2.18405566        3.21200583       -1.84033628
 C           -3.74212755        0.05789523       -1.35467323
 C           -3.72667135        1.46068531       -1.72538487
 C           -2.67490057       -1.91603162       -2.32020298
 C           -1.39553363       -2.15282236       -2.97422450
 C           -3.34049306       -0.71286494       -2.51906143
 C            0.54868200       -0.79367472       -3.57130250
 C            0.68530966        0.60427412       -3.94123905
 C           -0.83818196       -1.17219014       -3.78178928
 C           -0.98102242        2.40012451       -3.68262906
 C           -2.31870476        2.64949475       -3.17626306
 C           -3.26584337        1.55351860       -3.10188934
 C           -2.85095838        0.22473776       -3.51639871
 C           -0.64735942        1.14068339       -4.17442897
 C           -1.59338053        0.03495009       -4.08327191
