   70
C70 / DATE: 7/ 1/2024 / Origin: Program Fullerene / C70 from database
 C            1.50482238        0.11894485        4.90613937
 C            0.72173998       -1.10229451        4.93003439
 C            1.49324136       -2.13465583        4.26347482
 C            2.65127431       -0.10845873        4.04157979
 C            2.66833782       -1.50682395        3.67989418
 C            2.59916037        0.87125605        2.97624608
 C            0.69037553        1.15486561        4.29348376
 C            1.44701798        1.72296019        3.20025828
 C           -0.60559891       -0.79146499        4.42776151
 C           -0.60968802        0.59621551        3.98975997
 C           -1.26801624       -1.73130756        3.65151417
 C            0.85042609       -2.92116343        3.22521170
 C           -0.52801931       -2.85348897        3.07946839
 C            2.69925494       -1.85216868        2.27132892
 C            1.68114085       -2.85627344        2.03287753
 C            2.86596330        0.49123523        1.66311561
 C            2.88079839       -0.86356807        1.30862513
 C            2.54424929        1.40847041        0.66702211
 C            0.76143542        2.15960815        2.07465236
 C            1.48847876        2.29597309        0.90023804
 C           -1.19803737        0.92315959        2.76820413
 C           -0.60768247        1.90664828        1.96271354
 C           -2.19430966       -1.26495690        2.63562769
 C           -2.14122547        0.05759692        2.20824458
 C           -1.09914888       -3.12586928        1.77436587
 C           -2.29172117       -2.30746595        1.63678699
 C            1.08009097       -2.90137305        0.77517588
 C           -0.26409414       -3.27347483        0.67034264
 C            2.60181192       -1.19299533       -0.01568912
 C            1.68999620       -2.22338787       -0.28695782
 C            2.87384676        1.09654664       -0.64674462
 C            2.88659883       -0.25571509       -1.00425904
 C            2.66144678        2.08215187       -1.60560376
 C            0.87022362        2.91293547       -0.18182826
 C            1.58807103        3.02780336       -1.37097703
 C           -1.25061621        2.28342855        0.78177304
 C           -0.52472861        2.97099959       -0.19965140
 C           -2.69292024        0.37480522        0.96973043
 C           -2.43383680        1.63292058        0.43216047
 C           -2.70567815       -1.95789309        0.35910465
 C           -3.14907362       -0.65536959        0.13559258
 C           -0.86658655       -3.27444776       -0.58176741
 C           -2.18777006       -2.68026083       -0.71320251
 C            1.19246379       -2.39146599       -1.58360516
 C           -0.09553942       -2.88845101       -1.74829470
 C            2.73235744       -0.64441539       -2.32996742
 C            1.74959252       -1.66331347       -2.63220798
 C            2.66546005        1.74472478       -3.01366930
 C            2.67088389        0.34949525       -3.38406626
 C            0.89185669        3.24009215       -2.63088752
 C            1.49655153        2.36022489       -3.61815515
 C           -1.17572913        3.42440137       -1.34373719
 C           -0.48880843        3.35689211       -2.62026198
 C           -3.15148205        2.05456233       -0.68038616
 C           -2.54757331        3.01320671       -1.58353680
 C           -3.64648555       -0.34111382       -1.12557393
 C           -3.80990843        1.05222270       -1.49270372
 C           -2.30939565       -2.15240095       -2.06333076
 C           -0.99499758       -2.22017145       -2.67848675
 C           -3.09786655       -1.03457850       -2.27955083
 C            0.86295825       -1.11392232       -3.64796276
 C            1.47058080        0.08934198       -4.16546540
 C            0.68296327        1.30122420       -4.19356219
 C           -0.50746401       -1.14890814       -3.42327256
 C           -1.26014500        2.44714168       -3.44784584
 C           -2.61019925        2.45414057       -2.92754036
 C           -3.32748518        1.20314912       -2.85617596
 C           -2.62956880       -0.01987055       -3.20483914
 C           -0.66911796        1.25273179       -3.86326549
 C           -1.27495295        0.02141254       -3.54747630
