   70
C70 / DATE: 7/ 1/2024 / Origin: Program Fullerene / C70 from database
 C            1.20153176        0.07051485        4.37464323
 C            2.45785785       -0.17945829        3.71128041
 C            2.39323830       -1.52820802        3.17005925
 C            0.36731489       -1.10599582        4.18058405
 C            1.00884363       -1.93518398        3.18660733
 C           -0.97123807       -0.64515510        3.90975171
 C            0.42148215        1.22039551        3.96677191
 C           -0.97078825        0.80974834        3.95114437
 C            0.87828727        2.05668305        2.95348080
 C            2.85686311        0.69673816        2.62582397
 C            1.98266380        1.67693877        2.16876683
 C            3.06498440       -1.50611535        1.89913904
 C            3.51904871       -0.14648736        1.65567166
 C            2.50224221       -2.18491216        0.82786679
 C            0.35528699       -2.16124723        1.97288647
 C            1.10537988       -2.35062094        0.79878832
 C           -1.70518994       -1.25871185        2.91075439
 C           -1.02874302       -1.95413020        1.88859002
 C           -2.91767931       -0.65619406        2.62759846
 C           -1.87691162        1.50140642        3.14078630
 C           -2.96585874        0.79701335        2.61951185
 C           -0.02798436        2.98706685        2.46433106
 C           -1.44753778        2.65939391        2.48434951
 C            0.25510228        3.67197485        1.22345622
 C            2.10191130        2.11037370        0.84150354
 C            1.31861491        3.16499235        0.38431455
 C            3.59187783        0.25581813        0.32873066
 C            2.79321699        1.33070546       -0.09755314
 C            3.18399555       -2.03234769       -0.36851380
 C            3.86527537       -0.76367034       -0.57499131
 C            2.53517337       -2.37453176       -1.61014801
 C            0.43486740       -2.47571189       -0.42932411
 C            1.14949734       -2.47607910       -1.63780726
 C           -1.69634524       -2.28534501        0.70319655
 C           -0.95898228       -2.58027032       -0.44741422
 C           -3.69947178       -1.13886516        1.51928652
 C           -3.06512656       -2.03957406        0.58502991
 C           -3.51420562        1.18665238        1.33117254
 C           -4.15013824        0.02060566        0.76289111
 C           -1.98422097        2.97623117        1.16788452
 C           -0.96639095        3.68835976        0.43288458
 C           -2.77086918        2.03255930        0.51922585
 C            0.80827435        3.11469651       -0.97133488
 C           -0.63538511        3.23293157       -0.89512349
 C            2.49518526        1.48980586       -1.46268959
 C            1.33932652        2.17478615       -1.83921872
 C            3.84290197       -0.47611085       -1.98687677
 C            3.21383724       -1.61036816       -2.64152247
 C            3.14741917        0.71355642       -2.41736353
 C            2.43158485       -1.08897784       -3.73781366
 C            2.44057925        0.36537586       -3.63717381
 C            0.47919194       -2.30051062       -2.85452557
 C            1.04599181       -1.49269545       -3.84265810
 C           -1.62140417       -2.71854268       -1.66825635
 C           -0.89420930       -2.49092187       -2.90260302
 C           -3.60625387       -1.69063950       -0.71034473
 C           -3.93048641       -0.27435865       -0.63268738
 C           -2.94755821       -2.14170977       -1.83611754
 C           -2.48177128        1.65744636       -0.80820447
 C           -1.40723256        2.24732834       -1.49818057
 C           -3.21219321        0.62268611       -1.42141766
 C            0.50944134        1.62922366       -2.82039525
 C            1.06855606        0.81749920       -3.80190889
 C            0.31272242       -0.32175083       -4.28543360
 C           -0.87401388        1.60977104       -2.61438945
 C           -1.67986580       -1.56979894       -3.70944298
 C           -2.87608026       -1.23770840       -2.96637131
 C           -2.85855490        0.19229627       -2.69947362
 C           -1.06210917       -0.32485825       -4.12436821
 C           -1.67476944        0.73619213       -3.33711677
