   70
C70 / DATE: 7/ 1/2024 / Origin: Program Fullerene / C70 from database
 C            1.56443832        0.11292010        4.69866779
 C            0.77585421       -1.09850445        4.56812310
 C            1.38117661       -1.91848029        3.53278523
 C            2.67065880        0.01747432        3.76415490
 C            2.66699855       -1.32162131        3.20758729
 C            2.58991719        1.14094967        2.84461090
 C            0.72732685        1.22146637        4.27899808
 C            1.36240216        1.85646277        3.14522295
 C           -0.60794373       -0.70363984        4.40275970
 C           -0.62221476        0.72344660        4.11223704
 C           -1.42621645       -1.52649564        3.64609703
 C            0.56679610       -2.42070902        2.51258945
 C           -0.80689799       -2.47281516        2.72369408
 C            1.07257974       -2.53998035        1.21332140
 C            3.15852911       -1.48004460        1.92624757
 C            2.43026485       -2.33224367        1.00733604
 C            2.93576031        0.92964386        1.50726330
 C            3.51468915       -0.28872236        1.17126955
 C            2.28920956        1.66915688        0.50612040
 C            0.57661728        2.26076243        2.08173619
 C            1.20022311        2.46953356        0.86270976
 C           -1.37822135        1.17584549        3.03223790
 C           -0.81126952        2.07145341        2.11258461
 C           -2.53612304       -0.92454936        2.93588166
 C           -2.50473652        0.44262670        2.66433650
 C           -1.69873266       -2.62611072        1.58939438
 C           -2.89325662       -1.84991465        1.87635878
 C            0.20779021       -2.54740390        0.10776575
 C           -1.18054680       -2.61795034        0.29910988
 C            0.73337398       -2.53210464       -1.19507994
 C            2.89700132       -1.98387926       -0.31561521
 C            3.54854778       -0.68616514       -0.21477304
 C            2.07884032       -2.20989970       -1.41332542
 C            2.54707352        1.39745743       -0.85128470
 C            3.27181362        0.24534009       -1.20133171
 C            1.90411117        2.15665398       -1.84724828
 C            0.50392333        3.16694146       -0.10260035
 C            0.88557965        3.03633654       -1.49161086
 C           -1.58036252        2.53928233        1.03811754
 C           -0.94615319        3.18174210       -0.02671412
 C           -3.33994940        0.94493156        1.67615852
 C           -2.85685641        2.01912064        0.82823414
 C           -3.65675642       -1.38115950        0.81990464
 C           -4.07074330        0.01074447        0.83630543
 C           -2.05089781       -2.37807423       -0.76758314
 C           -3.24675307       -1.69738543       -0.53730323
 C           -0.13789829       -2.58390515       -2.28004231
 C           -1.55421938       -2.37722040       -2.06271533
 C            0.21086847       -1.91067988       -3.52114374
 C            2.44450372       -1.56079345       -2.59319280
 C            3.12555803       -0.28232532       -2.47541577
 C            1.51148707       -1.46423941       -3.69951476
 C            2.02853603        1.81029009       -3.19327597
 C            2.67687375        0.57025399       -3.54605993
 C            1.75796043       -0.19857954       -4.37160506
 C            0.87253633        1.94788290       -4.06453945
 C            0.63637497        0.66117902       -4.69670476
 C           -0.33248624        3.08836269       -2.28827850
 C           -1.45117536        2.97638760       -1.37388145
 C           -0.37942776        2.39914481       -3.48773754
 C           -3.29892105        1.74936224       -0.53465059
 C           -4.03675924        0.50837902       -0.52794357
 C           -3.57479195       -0.55963920       -1.38364428
 C           -2.42333729        2.00526189       -1.58228327
 C           -1.98588256       -1.31985352       -2.96231321
 C           -0.91590367       -1.06643404       -3.90464705
 C           -0.70417330        0.23403311       -4.34199229
 C           -1.35579192        1.32983874       -3.64073708
 C           -2.71808757       -0.26047395       -2.43590783
 C           -2.24270845        1.05132860       -2.59722495
