   70
C70 / DATE: 7/ 1/2024 / Origin: Program Fullerene / C70 from database
 C            1.64500326       -0.03213239        4.53551694
 C            0.77680650       -1.19087422        4.52726895
 C            1.21730848       -2.08228765        3.46579631
 C            2.57959316       -0.17773948        3.43480812
 C            2.25165212       -1.39167126        2.71620114
 C            2.56862754        1.06463889        2.69677515
 C            0.81849206        1.12842018        4.25079302
 C            1.46248755        1.86299015        3.18680339
 C           -0.59306888       -0.71205617        4.48472311
 C           -0.53439122        0.66669433        4.02576741
 C           -1.53346910       -1.55017522        3.91485087
 C            0.24097623       -2.78324846        2.76984084
 C           -1.05332790       -2.77048324        3.29772578
 C            0.42090101       -3.01791237        1.40120808
 C            2.15546270       -1.33315866        1.32986121
 C            1.32034787       -2.23079136        0.66475506
 C            2.73386539        1.02426424        1.32010069
 C            2.63003770       -0.20574366        0.65297387
 C            2.40520110        2.18046184        0.61701266
 C            0.67518103        2.47878978        2.22460288
 C            1.33612999        2.94815588        1.09398656
 C           -1.16690795        1.02351258        2.83317702
 C           -0.66186225        2.08005059        2.07445541
 C           -2.46461356       -0.99010239        2.95416120
 C           -2.08911315        0.15101930        2.25208441
 C           -2.15788205       -3.26415271        2.50418524
 C           -3.01775716       -2.11687973        2.23006717
 C           -0.50507341       -3.80613457        0.72908638
 C           -1.86024454       -3.89717709        1.24164685
 C           -0.62577892       -3.67591739       -0.70277252
 C            1.29591215       -2.23290167       -0.73893542
 C            0.38284844       -3.05352806       -1.42540336
 C            2.65047502       -0.21306998       -0.74189083
 C            2.03152683       -1.25638745       -1.43834816
 C            2.76357018        2.23192192       -0.72167316
 C            2.97160787        0.97256518       -1.40842398
 C            2.08088642        3.13692388       -1.62958769
 C            0.59956736        3.73776985        0.22107934
 C            1.04434184        3.92362470       -1.14624972
 C           -1.32484094        2.42984570        0.89918417
 C           -0.83282305        3.52299598        0.19445954
 C           -2.38230970        0.26644356        0.88588251
 C           -2.04273931        1.44017031        0.21622156
 C           -3.16373795       -2.01899054        0.79277079
 C           -2.72688266       -3.28426732        0.25270729
 C           -1.98887632       -3.25045574       -0.98350965
 C           -2.76045529       -0.85681365        0.13924078
 C           -2.13418787       -2.15121607       -1.81599249
 C           -2.45317484       -0.91420861       -1.22928350
 C            0.03204237       -2.71027699       -2.72446752
 C           -1.29849643       -2.15883807       -2.91942973
 C            1.97978628       -1.20236520       -2.83296816
 C            0.95280844       -1.94215137       -3.52244231
 C            2.59665691        1.15994007       -2.79889813
 C            1.96633498        2.46820359       -2.91989586
 C            2.09516387        0.08029007       -3.50778760
 C            0.81778862        2.61536494       -3.69300573
 C           -0.14047707        4.14452145       -1.95606626
 C           -1.29471039        3.76387974       -1.15561362
 C           -0.25917701        3.47717621       -3.23678721
 C           -2.13381835        1.47538052       -1.17893096
 C           -2.14790478        0.27616245       -1.90177627
 C           -1.97106799        2.68683564       -1.84360941
 C           -1.47562099        2.67829566       -3.20223643
 C           -1.16388990       -0.96458430       -3.71337861
 C            0.16850810       -0.99026862       -4.29053246
 C            0.91485702        0.25205786       -4.34632986
 C            0.19990182        1.44233029       -4.28206272
 C           -1.64600658        0.23559605       -3.21303535
 C           -1.17797073        1.40166829       -3.81045704
