   70
C70 / DATE: 7/ 1/2024 / Origin: Program Fullerene / C70 from database
 C            1.33894186        0.10694506        4.64014535
 C            2.53042373        0.00134301        3.82649160
 C            2.50031484       -1.29703566        3.17461645
 C            0.49901432       -1.04517899        4.34297601
 C            1.16628803       -1.83629176        3.32621682
 C           -0.83909901       -0.56135159        4.07045881
 C            0.52248714        1.29619922        4.51521929
 C           -0.85290500        0.86981452        4.31877957
 C            0.82408586        2.25955150        3.46959816
 C            2.77776760        0.99514857        2.79350497
 C            1.85849508        2.01745535        2.55975626
 C            3.01236201       -1.11848196        1.83380011
 C            3.33337029        0.28548997        1.65819697
 C            2.38795303       -1.76692402        0.77886449
 C            0.45878690       -2.19600265        2.18188905
 C            1.14080364       -2.37689715        0.97826637
 C           -1.50834741       -1.03112464        2.94862381
 C           -0.92394083       -2.02340268        2.15341241
 C           -2.46844972       -0.20657840        2.37552840
 C           -1.44555573        1.73940724        3.31106682
 C           -0.45355619        2.74646662        2.97855050
 C           -2.19767044        1.15836490        2.29122852
 C           -0.49719334        3.33662177        1.72876009
 C            1.79890026        2.59478949        1.28849605
 C            0.73526089        3.44163523        0.97552326
 C            3.17892569        0.82669744        0.38861062
 C            2.60177385        2.09265709        0.25806939
 C            2.73773617       -1.36636931       -0.50513023
 C            3.15741557       -0.04681637       -0.70151991
 C            2.26838479       -2.11972905       -1.57177253
 C            0.43925144       -2.86399702       -0.12638377
 C            1.09779700       -2.94722600       -1.35442324
 C           -1.64767062       -2.50059478        1.05829605
 C           -0.95700373       -2.95036162       -0.07850334
 C           -3.31889515       -0.77120213        1.44319750
 C           -2.97656116       -2.08694227        0.94827134
 C           -3.65875906        0.01550153        0.27737721
 C           -2.28178247        1.78898984        1.04323892
 C           -1.52801429        2.92642675        0.78805888
 C           -2.84586285        1.09874665       -0.02937090
 C            0.35435628        3.63026721       -0.41077075
 C           -1.00307636        3.12590029       -0.55026770
 C            2.50867089        2.66197318       -1.01147701
 C            1.27812174        3.33430613       -1.39505065
 C            3.22514062        0.48194656       -1.98592071
 C            2.95920808        1.89548997       -2.16167024
 C            2.16736801       -1.52928915       -2.89578822
 C            2.60054860       -0.22464057       -3.09094784
 C            0.33771428       -2.97176819       -2.59258596
 C            0.91340302       -1.97464278       -3.48409361
 C           -1.65764284       -3.31822526       -1.23144863
 C           -1.03824711       -3.13110527       -2.53131338
 C           -3.69734081       -2.25072997       -0.29596152
 C           -4.04476971       -0.91341902       -0.76034719
 C           -3.04788477       -2.94149158       -1.38385694
 C           -1.89993745       -2.24250076       -3.30123978
 C           -3.47920052       -0.75080704       -2.07762754
 C           -3.13083059       -2.07979055       -2.55025273
 C           -2.25818496        1.20119748       -1.30323463
 C           -1.28582580        2.18580974       -1.54026761
 C           -2.59731629        0.29864069       -2.32524378
 C            0.81319934        2.70975799       -2.61813453
 C            1.95349326        2.02831936       -3.20289164
 C            1.74942952        0.72089946       -3.79948032
 C           -0.43315172        2.08485655       -2.64482706
 C            0.08461170       -1.05563149       -4.11799592
 C           -1.34940188       -1.11723411       -3.89983685
 C           -1.77946148        0.19906179       -3.44609952
 C            0.45648566        0.34841382       -4.14306875
 C           -0.66475168        1.10869184       -3.60628512
