   70
C70 / DATE: 7/ 1/2024 / Origin: Program Fullerene / C70 from database
 C            1.41307204       -0.00756423        4.24036904
 C            2.66778710       -0.18051140        3.52594107
 C            2.63223726       -1.48359118        2.87855183
 C            0.59757067       -1.18611823        4.00120930
 C            1.30464453       -2.04085672        3.06862349
 C           -0.73786659       -0.74466950        3.64735710
 C            0.59373077        1.16443809        3.97482246
 C           -0.73471658        0.70524058        3.60693987
 C            1.14828771        2.24374110        3.30418607
 C            3.22925409        0.90675042        2.86523797
 C            2.54157407        2.18789024        2.89202314
 C            3.79364612        0.73436937        1.53527246
 C            3.26631653       -1.66771238        1.65940352
 C            3.87183859       -0.53276221        0.97626212
 C            2.62517533       -2.49356467        0.64972743
 C            0.60552281       -2.54520521        1.97561327
 C            1.28227953       -2.84452926        0.78712266
 C           -1.42175868       -1.41779697        2.64310878
 C           -0.78672127       -2.47145920        1.97624570
 C           -2.48497177       -0.76248506        2.02173686
 C           -1.43675446        1.33204571        2.58081145
 C           -2.49404057        0.63710604        1.98717392
 C            0.39442919        2.88120526        2.23888082
 C           -0.86573180        2.40979633        1.89197574
 C            2.63913087        2.77601038        1.56679001
 C            3.33891224        1.83940669        0.70891456
 C            1.31376579        3.21424626        1.16777417
 C            2.81265530        1.58244304       -0.55320012
 C            3.61656083       -0.69351105       -0.44533799
 C            3.11001552       -2.03869788       -0.63900480
 C            3.05503519        0.35318532       -1.17516276
 C            2.35074784       -2.30267208       -1.76493201
 C            0.56156188       -3.24387735       -0.34491787
 C            1.08499405       -3.00341858       -1.61591866
 C           -1.48400044       -3.17525003        1.00510162
 C           -0.80394808       -3.49698218       -0.23490385
 C           -3.31174853       -1.48983017        1.17153719
 C           -2.83808977       -2.76785016        0.67696518
 C           -3.97412081       -0.82219542        0.06802011
 C           -3.27949504        1.30807022        1.05191274
 C           -4.05572490        0.56066685        0.07458679
 C           -1.36614233        2.74424705        0.63596559
 C           -2.69808688        2.45262178        0.37895120
 C            0.90348072        2.99392883       -0.14360674
 C            1.79955823        2.40947027       -1.03857573
 C           -0.46555763        2.94225218       -0.42240553
 C            1.43395654        2.29933649       -2.36985507
 C            2.45359031        0.07682487       -2.40552194
 C            2.14821095       -1.24460961       -2.74091640
 C            1.83956195        1.11357784       -3.10193541
 C            0.19496172       -2.53573919       -2.66843325
 C            0.91446506       -1.54866129       -3.45219345
 C           -1.67973512       -3.10788832       -1.33098414
 C           -2.96433887       -2.75693609       -0.77215901
 C           -3.55988880       -1.49711852       -1.15397751
 C           -1.15266470       -2.35257371       -2.37252519
 C           -2.98991554       -0.75225992       -2.18367216
 C           -1.81132910       -1.19117580       -2.80881428
 C           -3.96606762        1.26458724       -1.19237730
 C           -3.18321356        2.47162119       -0.98142385
 C           -3.39964391        0.57102361       -2.33619653
 C           -0.88409246        2.83082378       -1.75626851
 C            0.06801060        2.61245892       -2.74918680
 C           -2.21896327        2.56426547       -2.05509416
 C           -2.53854751        1.51775464       -3.01652783
 C            0.79333564        0.80508863       -4.06189586
 C            0.20972728       -0.52260762       -4.05719611
 C           -1.21076107       -0.38349563       -3.77854550
 C           -0.27924000        1.76540289       -3.87738701
 C           -1.53172721        1.03427925       -3.83406191
