   70
C70 / DATE: 7/ 1/2024 / Origin: Program Fullerene / C70 from database
 C            1.41188872       -0.05368307        4.06106245
 C            2.40364662       -0.15372512        3.00270973
 C            2.34204332       -1.50222766        2.47942916
 C            0.54546814       -1.21705435        3.96367370
 C            1.12180564       -2.11316016        2.98619376
 C           -0.79988601       -0.74220089        3.73817337
 C            0.56421952        1.12340183        4.12189481
 C           -0.81834104        0.66748180        4.08641803
 C            0.93458866        2.24848592        3.39660541
 C            2.56606939        0.90460970        2.11883020
 C            2.03240971        2.15353652        2.44411070
 C            2.98956939        0.64992753        0.81237832
 C            2.69346173       -1.73996719        1.15492582
 C            3.08044368       -0.66840958        0.34150265
 C            2.19581800       -2.90109812        0.56509248
 C            0.28982296       -2.76108131        2.07973441
 C            0.92106792       -3.42075579        1.03031815
 C           -1.47831470       -1.17624962        2.60184030
 C           -1.03024424       -2.31253148        1.91818291
 C           -2.46395470       -0.36131555        2.03387349
 C           -1.79514265        1.47507156        3.52357107
 C           -2.75236457        0.87204552        2.61313650
 C           -0.09018133        3.09573069        2.80611634
 C           -1.43072411        2.77275938        2.97238176
 C            1.78164187        3.12760526        1.39560369
 C            0.38498345        3.51560934        1.49485825
 C            3.11533643        1.71749206       -0.07633518
 C            2.32834090        2.91592591        0.14307446
 C            3.12127128        1.47399946       -1.50725728
 C            3.37605564       -0.90549027       -1.00228078
 C            3.29777844        0.17862132       -1.96605671
 C            2.25498787       -3.07682062       -0.87475747
 C            2.86992903       -2.10423441       -1.64882796
 C            0.16228446       -3.85785879       -0.12607357
 C            0.99371495       -3.66263001       -1.30494420
 C           -1.81408092       -2.82326236        0.88686028
 C           -1.19731590       -3.59198503       -0.18190257
 C           -3.00175429       -0.68245145        0.78210980
 C           -2.83719964       -1.97733947        0.29731128
 C           -3.45199468        0.33254965       -0.07632778
 C           -3.26047469        1.92958250        1.77065558
 C           -2.35506692        3.06071812        1.89051678
 C           -3.43231647        1.65204049        0.36208891
 C           -0.44952333        3.39789923        0.38122121
 C           -1.82438692        3.34189646        0.56650361
 C           -2.63195021        2.61010785       -0.38660385
 C            1.47670245        3.07231759       -1.02054177
 C            2.09511711        2.32239572       -2.09853044
 C            0.09177599        3.04582100       -0.85736042
 C            1.29608836        1.83355130       -3.11943472
 C            2.53726991       -0.29457604       -3.11238305
 C            2.28689494       -1.71483660       -2.92387670
 C            1.55743258        0.51552044       -3.67696414
 C            0.41533163       -3.26289723       -2.50409124
 C            1.07820532       -2.26836772       -3.33386905
 C           -1.80647606       -3.18760980       -1.43863045
 C           -2.85205847       -2.22390055       -1.13536645
 C           -1.01809825       -3.02533777       -2.57403101
 C           -3.38833818        0.14211142       -1.45277293
 C           -3.09162424       -1.16765379       -2.00097852
 C           -2.06698993        2.19581253       -1.58805557
 C           -0.71981619        2.47346474       -1.84818730
 C           -0.14373677        2.00453907       -3.03037341
 C           -2.68618326        1.13517532       -2.24793242
 C            0.28255357       -0.05771746       -4.07879153
 C            0.05352658       -1.42119908       -3.92428599
 C           -1.24192616       -1.89275172       -3.45901375
 C           -2.25102146       -0.98001341       -3.17457550
 C           -0.76141454        0.89803712       -3.74122053
 C           -2.00664529        0.44654913       -3.33032514
