   70
C70 / DATE: 7/ 1/2024 / Origin: Program Fullerene / C70 from database
 C            1.22985098       -0.32280849        4.37339625
 C            2.50539126       -0.66766384        3.78728874
 C            2.39307457       -2.00282655        3.21798258
 C            0.40199733       -1.51651008        4.34856925
 C            1.06077816       -2.49917586        3.51077300
 C           -0.94268293       -1.09884065        4.00784840
 C            0.46211763        0.75836633        3.77488654
 C           -0.91864576        0.33891125        3.77666482
 C            0.96624242        1.41777893        2.65974320
 C            3.02982203        0.19398591        2.75148903
 C            2.34108295        1.35396989        2.40649234
 C            2.83626874       -1.92833257        1.83291930
 C            3.50186293       -0.65330581        1.67150908
 C            1.99798222       -2.37471744        0.82110601
 C            0.33383698       -3.10863704        2.49816274
 C            0.87300114       -3.13688453        1.14584920
 C           -1.72098489       -1.88591513        3.16199878
 C           -1.10336782       -2.88083250        2.39656029
 C           -2.89201216       -1.31023449        2.67954435
 C           -1.79644261        0.85086318        2.83406904
 C           -2.97758584        0.14055082        2.68833045
 C            0.08537388        1.83413106        1.64742426
 C           -1.28410274        1.55279626        1.72802164
 C            0.58453265        2.51176754        0.53452189
 C            2.84550394        2.05419358        1.32411730
 C            1.93671192        2.83610614        0.51434114
 C            3.57948538       -0.07566617        0.41096096
 C            3.67577548        1.31023652        0.39369873
 C            2.08666948       -1.79155653       -0.44496092
 C            2.95974912       -0.71472334       -0.67305098
 C            1.12623331       -2.12024138       -1.40026901
 C           -0.25097309       -3.17457236        0.22538854
 C           -1.47225419       -3.04782977        0.99504604
 C           -0.13848288       -2.50852170       -0.98189880
 C           -3.40818884       -1.73002399        1.39176223
 C           -2.53006545       -2.31080180        0.47925790
 C           -3.90905349        0.53096773        1.66213855
 C           -4.31359821       -0.68301635        0.96614875
 C           -2.10931716        1.83422827        0.62493232
 C           -3.45853230        1.46899685        0.66117487
 C           -0.17635432        2.57399922       -0.64250749
 C           -1.53780167        2.23523266       -0.59699003
 C            0.43261589        2.89334072       -1.87033908
 C            2.60399954        3.03352942       -0.75262309
 C            3.62804085        2.00290292       -0.86833637
 C            1.81677980        2.98386468       -1.95934794
 C            2.99024329       -0.11098085       -1.94048197
 C            3.33384463        1.23743857       -2.05911784
 C            2.51776076        2.10684169       -2.88484431
 C            1.28646692       -1.69702375       -2.70511120
 C            2.31194658       -0.71475724       -2.99726812
 C            0.09715581       -1.35267524       -3.46475337
 C           -1.26297545       -1.91602589       -1.56002749
 C           -2.46177334       -1.83453268       -0.84000225
 C           -1.13107905       -1.26522018       -2.79732297
 C           -4.38645387       -0.36517162       -0.43845664
 C           -4.09830739        1.05452484       -0.56399817
 C           -3.49330923       -1.05313507       -1.34996169
 C           -2.26157084        2.06775046       -1.79249421
 C           -2.05133176       -0.27113741       -3.16693966
 C           -3.35973738        1.22186703       -1.78532840
 C           -3.18389352       -0.09204051       -2.38414759
 C           -0.25369128        2.65913994       -3.05229585
 C           -1.58188434        2.10570097       -2.99781507
 C           -1.57633540        0.88362373       -3.78284358
 C            1.80790365        1.55240551       -3.93804906
 C            1.82869057        0.10742771       -4.09667081
 C            0.48099281       -0.33161589       -4.42412786
 C            0.44188382        1.99722297       -4.14810297
 C           -0.34888018        0.84329139       -4.54363375
