   70
C70 / DATE: 7/ 1/2024 / Origin: Program Fullerene / C70 from database
 C            1.52773192        0.07221525        4.83514193
 C            0.73464815       -1.13728036        4.72173882
 C            1.37142922       -2.00658744        3.74521510
 C            2.65805512       -0.05813327        3.93547836
 C            2.64192869       -1.40034027        3.38215358
 C            2.63508449        1.06636132        3.01506195
 C            0.71120188        1.17315116        4.35796337
 C            1.41156709        1.80939095        3.25469021
 C           -0.64232539       -0.74161254        4.48856587
 C           -0.62839271        0.66564474        4.11648983
 C           -1.44167801       -1.60472716        3.75849505
 C            0.56937294       -2.59795025        2.76737687
 C           -0.79640732       -2.68516100        3.02889086
 C            1.03839919       -2.69957082        1.44684412
 C            3.12064932       -1.57316493        2.09571495
 C            2.36711129       -2.39881840        1.16962343
 C            3.02918792        0.85279776        1.69964060
 C            3.53949002       -0.39917185        1.35011255
 C            2.50700322        1.67262371        0.69720814
 C            0.66824418        2.22958983        2.15825802
 C            1.29282860        2.33484699        0.91220867
 C           -1.28217858        1.07562266        2.95602638
 C           -0.71963887        2.10924221        2.20984726
 C           -2.42569414       -1.04213163        2.85447522
 C           -2.22909129        0.23961830        2.35314757
 C           -1.70138462       -3.08040834        1.97447966
 C           -2.77759543       -2.09813114        1.93343616
 C            0.15090317       -2.90065988        0.38024458
 C           -1.18283260       -3.20643844        0.63210603
 C            0.51148727       -2.53021125       -0.92258947
 C            2.73502356       -1.97697231       -0.17117653
 C            3.56794669       -0.78989410       -0.04605927
 C            1.79075637       -2.02880235       -1.19083810
 C            2.97849073        1.50845546       -0.59871761
 C            3.45633382        0.19850796       -1.00884107
 C            2.24057178        2.07693996       -1.70939339
 C            0.56654739        2.86078960       -0.16476393
 C            1.06296307        2.77276361       -1.47162280
 C           -1.46598210        2.65897094        1.18321231
 C           -0.76375134        3.21803171        0.04547372
 C           -2.74494885        0.58185045        1.09625769
 C           -2.58394037        1.89239978        0.66379755
 C           -2.99832153       -1.75574359        0.54381852
 C           -2.19339591       -2.66258490       -0.25014290
 C           -3.04700267       -0.41707920        0.15769455
 C           -0.48421495       -2.43985800       -1.90095357
 C           -1.80220029       -2.22913502       -1.50169310
 C           -0.12888398       -2.07942138       -3.19711024
 C            2.00942698       -1.26792901       -2.34279323
 C            2.79581415       -0.12338264       -2.25892941
 C            2.28494324        1.12072447       -2.80544830
 C            1.11751259       -1.36761550       -3.40118683
 C            1.22315206        1.07513533       -3.70273464
 C            0.81861226       -0.17469209       -4.18201306
 C            0.22042629        3.00740999       -2.55966529
 C            0.35205137        2.16645714       -3.74131830
 C           -1.69592595        3.20465230       -1.06151167
 C           -2.70880586        2.20690813       -0.74642615
 C           -1.19706340        3.26033335       -2.35010474
 C           -2.94016003       -0.13938882       -1.21194587
 C           -2.49603902       -1.16328681       -2.05942452
 C           -2.96120278        1.18777602       -1.65714556
 C           -1.13436148       -1.45561123       -4.04736193
 C           -0.50108779       -0.35991598       -4.76098307
 C           -2.33339338       -0.93479508       -3.41770662
 C           -0.96343450        2.04921088       -4.34783649
 C           -1.92899809        2.56709868       -3.39506816
 C           -2.80414448        1.47189536       -3.01274197
 C           -1.43142640        0.74956169       -4.77880892
 C           -2.57099196        0.38962935       -3.94583277
