   70
C70 / DATE: 7/ 1/2024 / Origin: Program Fullerene / C70 from database
 C            1.40640766        0.00705703        4.39170605
 C            2.60062287       -0.30542554        3.64578235
 C            2.54031159       -1.71049583        3.27212413
 C            0.56770040       -1.17953912        4.42108079
 C            1.30811121       -2.26737636        3.80488530
 C           -0.73606344       -0.82232980        3.87496824
 C            0.58765096        1.10372558        3.92912905
 C           -0.76726258        0.61229958        3.73878689
 C            1.08579340        2.00338679        2.99000717
 C            2.88252843        0.46126509        2.44673713
 C            2.13573789        1.60668296        2.14295475
 C            2.79239071       -1.80615581        1.84086620
 C            3.15888557       -0.48558197        1.38120753
 C            1.95490725       -2.59532223        1.05672567
 C            0.60521609       -3.16495753        3.01751505
 C            1.14200854       -3.51348190        1.71480433
 C           -1.28076567       -1.61602091        2.87605594
 C           -0.80765816       -2.92092874        2.79104989
 C           -1.87999575       -1.01132852        1.75505522
 C           -1.52015034        1.19441963        2.73133283
 C           -1.99795547        0.38850308        1.68186599
 C            0.16747406        2.93386403        2.52270890
 C           -1.22959523        2.52877721        2.47990988
 C            0.44095519        3.66429946        1.30602938
 C            2.17972648        2.07867847        0.82171746
 C            1.44456681        3.21542126        0.45910382
 C            2.83646061       -0.10815056        0.09489603
 C            2.72994293        1.24636040       -0.16347736
 C            1.63627478       -2.18219313       -0.25006899
 C            2.19862463       -1.00706622       -0.76255696
 C            0.70557131       -2.89887804       -1.01865747
 C            0.05708158       -4.14040131        1.00113769
 C           -1.17957298       -3.73851979        1.66587351
 C           -0.11389833       -3.84652398       -0.40200157
 C           -2.32187293       -1.80151547        0.67937083
 C           -2.02832188       -3.16691488        0.64906822
 C           -1.54531873       -3.73779251       -0.58935013
 C           -2.71017200       -1.19430303       -0.51957636
 C           -2.45113501        0.97832078        0.48891039
 C           -2.60652373        0.19260517       -0.65197174
 C           -1.85268371        3.18879838        1.36271945
 C           -0.84492782        4.02659381        0.73542225
 C           -2.44266218        2.36532501        0.33626693
 C           -1.01663740        3.92132823       -0.69977527
 C           -2.04946439        2.92654569       -0.94455889
 C            1.40688965        3.62410192       -0.87333127
 C            0.11815308        3.90709357       -1.49408585
 C            2.75904247        1.63952428       -1.48787029
 C            2.21980281        2.92883771       -1.84777516
 C            1.88611434       -0.58503319       -2.05932405
 C            2.34006358        0.67068900       -2.48640987
 C            0.27973522       -2.38871716       -2.25121248
 C            0.89639735       -1.25040694       -2.78895338
 C           -1.98102960       -3.16827574       -1.76083947
 C           -2.82660364       -1.99641512       -1.65758923
 C           -0.97228486       -2.79895330       -2.72728640
 C           -2.80007641       -1.38880611       -2.97288132
 C           -1.68444270       -1.99293457       -3.69318365
 C           -2.48751649        0.79158494       -1.91634096
 C           -1.92465384        2.06241466       -2.02380786
 C           -2.64529079        0.04195524       -3.07294873
 C            0.07649244        3.19293119       -2.75563549
 C            1.42818786        2.75524187       -3.05157792
 C            1.62203706        1.39470516       -3.52382294
 C           -0.97191717        2.31623454       -3.02082032
 C            0.38749099       -0.65658834       -3.94907493
 C           -0.97052269       -0.93729421       -4.36398982
 C           -1.72934820        0.28660075       -4.16583811
 C            0.55801462        0.76767931       -4.14641048
 C           -0.76704831        1.36077609       -4.01477051
