   70
C70 / DATE: 7/ 1/2024 / Origin: Program Fullerene / C70 from database
 C            1.31259567       -0.00468668        4.43040379
 C            2.55988365       -0.20875426        3.73042521
 C            2.53074464       -1.54643457        3.15953629
 C            0.47440958       -1.17305379        4.19812650
 C            1.17188353       -2.03365422        3.25990613
 C           -0.85308783       -0.69262753        3.84851904
 C            0.51533271        1.15905167        4.10025349
 C           -0.87097878        0.72858769        4.13606537
 C            0.92470607        2.02662790        3.08424476
 C            2.90759920        0.70110643        2.65741180
 C            1.98233214        1.66069480        2.23942362
 C            3.13584378       -1.46636226        1.84471427
 C            3.59475276       -0.10014371        1.66288453
 C            2.52257556       -2.10448548        0.77105172
 C            0.51689196       -2.42313904        2.09791823
 C            1.25540407       -2.68107408        0.93863201
 C           -1.44477104       -1.15290721        2.67597826
 C           -0.85849910       -2.22364969        2.00004970
 C           -2.38344140       -0.35344102        2.01402080
 C           -1.81579848        1.52290988        3.50919172
 C           -2.65456609        0.93031874        2.47700603
 C            0.01330649        2.98817055        2.65635525
 C           -1.38488650        2.81852361        3.01916893
 C            0.05337121        3.44536600        1.27867048
 C            2.00226612        2.09492401        0.90721352
 C            0.94357986        2.84341237        0.39547879
 C            3.69080907        0.39004532        0.37211644
 C            2.96506255        1.60173455        0.03310931
 C            2.96154574       -1.78586193       -0.51273581
 C            3.52327541       -0.53204492       -0.73949867
 C            2.43557442       -2.47975300       -1.59292793
 C            0.61307784       -3.25788310       -0.15974223
 C            1.29248238       -3.34364512       -1.37165848
 C           -1.53777402       -2.78927451        0.93311002
 C           -0.77407467       -3.40792602       -0.13593350
 C           -2.82179007       -0.72018282        0.74135659
 C           -2.61612451       -2.03306572        0.32609845
 C           -3.15761261        0.27092736       -0.19101904
 C           -2.96977559        1.96529447        1.51022703
 C           -2.19209858        3.14235002        1.85995315
 C           -1.31395769        3.70924457        0.85582499
 C           -3.08059138        1.62035469        0.16672755
 C           -1.64447216        3.51128941       -0.47332073
 C           -2.69875590        2.56102810       -0.79170466
 C            0.65369340        2.80962864       -0.97526401
 C           -0.58049127        3.27300547       -1.42729855
 C            2.66788237        1.55158689       -1.38623927
 C            3.07576514        0.24440513       -1.88255512
 C            1.48953864        2.11580766       -1.85687924
 C            2.21374398       -1.77214242       -2.84517808
 C            2.31834906       -0.38186299       -2.86894267
 C            0.54323264       -3.40595514       -2.61567508
 C            1.11426418       -2.42907301       -3.52948470
 C           -1.54894584       -3.27050066       -1.36145387
 C           -2.66044495       -2.37337562       -1.08462882
 C           -0.89279247       -3.20602721       -2.58347812
 C           -3.32768164       -0.06101048       -1.53526004
 C           -3.01063246       -1.39843325       -2.00522654
 C           -2.49708671        2.14840926       -2.17087578
 C           -1.19357595        2.64991048       -2.58611865
 C           -2.90393817        0.87952581       -2.55801095
 C            0.99764464        1.68215189       -3.08682706
 C            1.39385923        0.37554999       -3.58989648
 C           -0.39916001        1.89006757       -3.43063360
 C            0.03300808       -1.62294291       -4.05962913
 C           -1.21609571       -2.14283465       -3.52297729
 C           -2.26775673       -1.27355670       -3.25067536
 C           -2.13227876        0.14410088       -3.54728282
 C            0.21546083       -0.25153605       -4.17654562
 C           -0.91181156        0.64718993       -3.98559586
