   70
C70 / DATE: 7/ 1/2024 / Origin: Program Fullerene / C70 from database
 C            1.52955173        0.00314501        4.74869307
 C            0.74404502       -1.20456267        4.59699325
 C            1.35368487       -2.02542841        3.56101804
 C            2.67079049       -0.10538439        3.86318491
 C            2.55368492       -1.34595071        3.11246007
 C            2.75681450        1.13328072        3.11614780
 C            0.71604180        1.11037190        4.27391951
 C            1.45673923        1.77994358        3.22223618
 C           -0.63435474       -0.79866456        4.41021842
 C           -0.60066368        0.58717785        3.96448785
 C           -1.45789435       -1.67598054        3.72876095
 C            0.51054484       -2.62926175        2.63079017
 C           -0.82690035       -2.76230383        2.99662346
 C            0.85714888       -2.61148696        1.26863825
 C            2.85235491       -1.32040500        1.75714743
 C            2.10394522       -2.10286437        0.87530304
 C            3.35540965        1.08046990        1.86829213
 C            3.56287542       -0.22543821        1.26355298
 C            2.84000640        1.93277944        0.81450624
 C            0.79209530        2.14208502        2.05287036
 C            1.54669514        2.43861515        0.91722917
 C           -1.18698316        0.92050023        2.74362446
 C           -0.57345374        1.86464194        1.91280985
 C           -2.44452856       -1.12736156        2.82198163
 C           -2.19272348        0.10363906        2.22336011
 C           -1.78972911       -3.21732322        2.02254819
 C           -2.86429651       -2.23288461        1.99108091
 C           -0.05363680       -3.06704458        0.29549820
 C           -1.35381594       -3.41204704        0.65953865
 C            0.22519508       -2.89681327       -1.06395950
 C            2.46923631       -2.12991939       -0.46806869
 C            1.49827851       -2.52936981       -1.46646367
 C            3.66687473       -0.02144824       -0.17023062
 C            3.25849834        1.34739927       -0.44637806
 C            3.24451697       -1.02928610       -1.01851499
 C            2.49708180        1.62066979       -1.57583598
 C            0.88854819        2.81766607       -0.24899483
 C            1.52224536        2.61275516       -1.47702060
 C           -1.22289992        2.26084640        0.74379489
 C           -0.49468823        2.97090699       -0.21160601
 C           -2.69069019        0.37242102        0.94720606
 C           -2.39905498        1.60441209        0.36905520
 C           -3.16415271       -1.97377371        0.60043829
 C           -2.45178836       -2.96881921       -0.17633965
 C           -3.17677347       -0.66423203        0.13409599
 C           -0.82013652       -2.78843425       -1.97953815
 C           -2.18946572       -2.68600264       -1.50509790
 C           -0.68360204       -1.89219611       -3.11848635
 C            1.65995930       -1.66633017       -2.62955212
 C            2.66270025       -0.66934220       -2.29853657
 C            2.40162965        0.66452655       -2.59327676
 C            0.54282879       -1.28272051       -3.37236366
 C            1.57935188        0.92580406       -3.68391332
 C            0.56304682       -0.05607445       -4.03682785
 C            0.92534574        3.08299620       -2.63918220
 C            0.98835551        2.24521308       -3.81829966
 C           -1.14817122        3.50058092       -1.31836450
 C           -0.41402455        3.63620931       -2.56341396
 C           -3.00184344        1.91560682       -0.84371035
 C           -2.46582951        2.99955990       -1.64431723
 C           -3.23630343       -0.47264351       -1.24676861
 C           -2.74901615       -1.47439065       -2.08484843
 C           -1.90963380       -1.11048232       -3.21417341
 C           -3.32581157        0.82255348       -1.73927587
 C           -0.68475388        0.66243593       -4.24931690
 C           -0.36623644        2.07923398       -4.31661193
 C           -1.20859925        3.02974341       -3.62154686
 C           -2.44087536        2.55596202       -3.02907646
 C           -1.84233360        0.22071297       -3.60815045
 C           -2.73045679        1.13180580       -3.03004364
