   70
C70 / DATE: 7/ 1/2024 / Origin: Program Fullerene / C70 from database
 C            1.41621379        0.06902065        4.65079693
 C            2.54816507       -0.04354363        3.75626890
 C            2.47334247       -1.34297383        3.10782720
 C            0.56375839       -1.09011436        4.43545378
 C            1.18171857       -1.91925067        3.41267354
 C           -0.79290817       -0.61634637        4.21402560
 C            0.58606562        1.25164002        4.56904992
 C           -0.79558375        0.82047851        4.41555836
 C            0.84498428        2.23431908        3.52982979
 C            2.73517779        0.95191902        2.71258228
 C            1.84311502        2.01590272        2.57306284
 C            2.82827058       -1.15896238        1.71651721
 C            3.15933584        0.24075500        1.52271447
 C            2.07854386       -1.79249455        0.73391773
 C            0.38821723       -2.37615983        2.36541261
 C            0.93609249       -2.51735581        1.08398083
 C           -1.50724796       -1.13983225        3.14230306
 C           -0.99149621       -2.26096972        2.49404186
 C           -2.38910361       -0.30857986        2.44597420
 C           -1.40560845        1.66082588        3.39866869
 C           -0.45464294        2.71538233        3.09669520
 C           -2.10185360        1.05245933        2.35601299
 C           -0.54068213        3.35225419        1.87354842
 C            1.73783501        2.64530547        1.32871795
 C            0.67669386        3.52284363        1.10995967
 C            2.89750052        0.80799268        0.28398188
 C            2.42753743        2.11771324        0.22964615
 C            2.20106475       -1.33497069       -0.57033038
 C            2.66597850       -0.03507396       -0.80260727
 C            1.58386787       -2.04491264       -1.58994123
 C            0.13684698       -3.05103059        0.06555190
 C            0.52155984       -2.90419492       -1.27425644
 C           -1.79374699       -2.92070363        1.57862962
 C           -1.17763100       -3.42472912        0.36452649
 C           -3.19867000       -0.87696257        1.47013293
 C           -3.04568666       -2.29272829        1.20300070
 C           -3.31187387       -0.19833755        0.18890333
 C           -2.16392462        1.68128661        1.10781564
 C           -1.55303567        2.91374314        0.92766413
 C           -2.57604021        0.95789056       -0.01108688
 C            0.26197083        3.81346784       -0.24601678
 C           -1.08495336        3.27537438       -0.39714778
 C            2.29174144        2.71612126       -1.02151899
 C            1.16944363        3.61108839       -1.26818702
 C            2.59820353        0.51631820       -2.08408776
 C            2.47642195        1.90044928       -2.21358383
 C            1.84530212       -1.66910541       -2.90424362
 C            2.25491874       -0.30013844       -3.16436996
 C            0.94078998       -2.05630099       -3.96485050
 C           -0.36629346       -3.32297639       -2.26768748
 C           -0.22941250       -2.82919102       -3.62330303
 C           -2.19495395       -3.39669795       -0.67597782
 C           -3.24163592       -2.50299162       -0.21697324
 C           -3.36120220       -1.20146782       -0.85463708
 C           -1.78425311       -3.27035624       -1.98882085
 C           -1.39864616       -1.99642217       -3.88390274
 C           -2.67737953       -0.99326765       -2.04776679
 C           -2.27473384       -2.13103247       -2.74467491
 C           -2.00083711        1.21409406       -1.26228726
 C           -1.36774219        2.44450535       -1.48229172
 C           -2.01101765        0.22481305       -2.26615261
 C            0.64077124        3.29752629       -2.58008471
 C            1.59637975        2.43056229       -3.23685164
 C           -0.65936214        2.65433924       -2.65893587
 C            1.38438767        0.22667890       -4.21263444
 C            0.47502711       -0.83373746       -4.59155024
 C           -0.92132622       -0.68034885       -4.23314167
 C           -1.28675653        0.41844167       -3.45593164
 C            0.84628179        1.49050076       -4.03866548
 C           -0.55328379        1.58824869       -3.63094711
