   70
C70 / DATE: 7/ 1/2024 / Origin: Program Fullerene / C70 from database
 C            1.08658105       -0.08943709        4.81700420
 C            2.33946766       -0.32401237        4.12607503
 C            2.22830935       -1.60452670        3.44359784
 C            0.24474060       -1.25460396        4.59370409
 C            0.84806493       -2.02926663        3.52657402
 C           -1.10936548       -0.78677540        4.42191508
 C            0.30166520        1.08806645        4.48610059
 C           -1.08281493        0.67028260        4.39578766
 C            0.78759008        2.00911080        3.56485287
 C            2.80812817        0.64933720        3.15509861
 C            2.10181308        1.82745749        2.96056238
 C            2.81439699       -1.45251351        2.13109610
 C            3.28004424       -0.08684645        1.99731544
 C            2.17912706       -2.01510560        1.03399907
 C            0.14401949       -2.24632198        2.33981824
 C            0.85286270       -2.45786236        1.15227020
 C           -1.84596469       -1.21782491        3.25215307
 C           -1.23790196       -2.02219041        2.28576364
 C           -1.88266091        1.09799528        3.25826906
 C           -2.60199664       -0.07175297        2.79779204
 C           -0.10027839        2.54774617        2.54177086
 C           -1.34085840        1.96142509        2.30655070
 C            2.05494737        2.40742103        1.63097724
 C            0.72286337        2.93783682        1.41626969
 C            3.21578552        0.48586162        0.72998566
 C            2.68417926        1.77279688        0.56389706
 C            2.64921378       -1.64551936       -0.22159534
 C            3.22527031       -0.37781382       -0.36765400
 C            2.14925045       -2.32196957       -1.32471082
 C            0.15807523       -2.84102014        0.00282365
 C            0.86122280       -2.97705498       -1.19535500
 C           -1.89559361       -2.14427006        1.05842207
 C           -1.23458729       -2.74087305       -0.01874926
 C           -3.03970856       -0.09069084        1.48977177
 C           -2.98800669       -1.30325426        0.81693724
 C           -1.86150800        1.93731233        1.00701037
 C           -2.92467168        1.07294196        0.73842499
 C            0.20167975        2.86902295        0.13453456
 C           -1.13267217        2.49290428       -0.05692055
 C            2.34920227        2.18883459       -0.72623155
 C            1.09334911        2.78323102       -0.93019758
 C            3.37691543        0.18232027       -1.63107446
 C            3.01144537        1.57391414       -1.78560919
 C            2.21763151       -1.71913969       -2.64376470
 C            2.91018296       -0.53094766       -2.80838380
 C            0.17026261       -2.83735525       -2.46662275
 C            0.90748377       -1.86667640       -3.25690043
 C           -1.92005547       -2.93453887       -1.21844538
 C           -1.21058608       -2.79473620       -2.47698452
 C           -3.68789634       -1.39821192       -0.37716805
 C           -3.21734007       -2.31155406       -1.39663048
 C           -3.51629243        1.08823296       -0.51651246
 C           -4.06904439       -0.15847564       -1.03137142
 C           -1.65662753        2.45914504       -1.35921523
 C           -2.83162079        1.75178321       -1.60755709
 C            0.59209104        2.97497320       -2.21043037
 C           -0.81080828        2.69651058       -2.44586762
 C            2.55584788        1.76729452       -3.14653605
 C            2.39520605        0.45219041       -3.74632192
 C            1.33295077        2.50412672       -3.36463215
 C            0.25442696       -0.74397287       -3.76819710
 C           -0.88658951        1.79965692       -3.59099547
 C            1.01817254        0.33757983       -4.19738767
 C            0.44112952        1.66074988       -4.14365561
 C           -1.86524581       -1.73329453       -3.22066037
 C           -3.19709743       -1.59516016       -2.66461111
 C           -3.71458518       -0.26656629       -2.43512462
 C           -2.87303098        0.86346295       -2.75910144
 C           -1.12736955       -0.60100440       -3.57891266
 C           -1.70281699        0.68161514       -3.48703685
