   70
C70 / DATE: 7/ 1/2024 / Origin: Program Fullerene / C70 from database
 C            1.35880018       -0.17381893        5.17283485
 C            0.50027699       -1.34375376        5.18564788
 C            1.09157518       -2.34336561        4.31099263
 C            2.49873343       -0.47102535        4.32406296
 C            2.37592509       -1.84201373        3.86109345
 C            2.60283024        0.58757827        3.33313845
 C            0.62206635        0.91262834        4.54855576
 C            1.43672351        1.44366711        3.47767052
 C           -0.77288536       -0.96039332        4.60568064
 C           -0.70224033        0.43418536        4.21243754
 C            0.09841078       -2.71198885        3.31250620
 C           -1.09565049       -1.92793954        3.57744657
 C            0.49905027       -2.89540615        1.98406166
 C            2.76711877       -2.12531157        2.56244662
 C            1.85831674       -2.85852404        1.69108646
 C            3.02516697        0.26456003        2.04503933
 C            3.33737105       -1.05991243        1.75380179
 C            2.64706343        1.09588855        0.99176243
 C            0.80932961        1.87855379        2.31892171
 C            1.57879750        1.98012620        1.17312547
 C           -1.23599923        0.77972997        2.97398002
 C           -0.56893243        1.70805691        2.16956418
 C           -1.81693862       -1.49248121        2.48213486
 C           -2.08839350       -0.12877188        2.35178818
 C           -0.43599927       -2.68744052        0.95710818
 C           -1.70679308       -2.23481674        1.31914208
 C           -0.01379134       -2.57418967       -0.38276813
 C            2.28279581       -2.59254232        0.33454909
 C            3.25568847       -1.50836487        0.37711112
 C            1.35153275       -2.59673446       -0.69457827
 C            3.05140433        0.77672189       -0.30729721
 C            3.22838228       -0.56881756       -0.64725062
 C            2.82048475        1.71733480       -1.30941019
 C            1.02903050        2.60893555        0.06735856
 C            1.84258748        2.75438159       -1.04606062
 C           -1.15294640        2.04857800        0.94488108
 C           -0.36449596        2.60892398       -0.07163858
 C           -2.76876386        0.28611718        1.21022482
 C           -2.39297169        1.49534297        0.62203379
 C           -2.64884541       -1.98350737        0.34083578
 C           -3.32835530       -0.70523156        0.40687160
 C           -0.95657560       -2.29847590       -1.38853252
 C           -2.30053962       -2.20263177       -1.04317510
 C           -0.54272002       -1.88874708       -2.66399642
 C            1.77697681       -2.07172041       -1.90740006
 C            2.78000148       -1.01976572       -1.88508513
 C            0.80978838       -1.74324709       -2.92901424
 C            2.62211637        1.27980987       -2.68134301
 C            2.46504294       -0.07069687       -2.93530089
 C            1.26856053       -0.54573829       -3.61755697
 C            1.26383862        3.15651606       -2.30515290
 C            1.72703389        2.22359808       -3.32222825
 C           -0.96274700        2.99230352       -1.28174648
 C           -0.17633955        3.23722894       -2.40731617
 C           -3.03985483        1.91873241       -0.53374444
 C           -2.32363470        2.76571898       -1.46950993
 C           -3.77378800       -0.37768623       -0.93233529
 C           -3.19281751       -1.37046449       -1.83167946
 C           -3.81214566        0.95808166       -1.30637480
 C           -1.43813582       -1.25443089       -3.52635050
 C           -2.80588877       -1.00242734       -3.11033786
 C            0.32164676        0.35357443       -4.10843527
 C            0.55422584        1.72854474       -4.02335549
 C           -0.53868867        2.62451311       -3.67472540
 C           -0.98146808       -0.10298394       -4.29226750
 C           -2.81065006        2.45795327       -2.80627970
 C           -3.68742127        1.30337002       -2.70954884
 C           -3.20314795        0.29509953       -3.63270120
 C           -1.84611505        2.20339419       -3.86295406
 C           -2.07201363        0.85561817       -4.35244478
