   70
C70 / DATE: 7/ 1/2024 / Origin: Program Fullerene / C70 from database
 C            1.32845052       -0.06997531        4.50756678
 C            2.65304305       -0.28640205        3.95768861
 C            2.69534398       -1.63247526        3.41813189
 C            0.51690138       -1.23385986        4.19408000
 C            1.36250590       -2.20528488        3.52447818
 C           -0.67929068       -0.77734007        3.51124771
 C            0.59223746        1.10809092        4.09176015
 C           -0.67698811        0.67205257        3.52816223
 C            1.27511794        2.13876464        3.46042731
 C            3.13792304        0.61747162        2.92857980
 C            2.54515073        1.86197514        2.79127215
 C            3.31521809       -1.56775255        2.10474416
 C            3.38193359       -0.16550182        1.72798802
 C            2.90803889       -2.48611484        1.15376583
 C            0.85372306       -2.88575915        2.42328413
 C            1.75815848       -3.31914826        1.45693376
 C           -1.06890921       -1.43520309        2.35441157
 C           -0.47239930       -2.65684601        2.04263607
 C           -1.76233443       -0.73463375        1.36358175
 C           -1.20429659        1.36627465        2.44247532
 C           -1.83587642        0.65974090        1.40979286
 C            0.52621842        3.02330327        2.58729130
 C           -0.77191871        2.67376643        2.21646397
 C            2.44792221        2.43195788        1.46164730
 C            1.44710179        3.47109725        1.55579048
 C            2.84231927        0.25582208        0.50646814
 C            2.43930388        1.58412065        0.35342507
 C            2.72970585       -2.03925477       -0.21409040
 C            2.51506934       -0.68743977       -0.47085571
 C            1.25208288       -3.81397892        0.19324624
 C            1.88078403       -3.02181152       -0.85990744
 C           -1.00920078       -3.40290774        1.00132100
 C           -0.10166605       -4.09393201        0.09714616
 C           -2.24956373       -1.42438783        0.25251332
 C           -2.05588103       -2.80362386        0.19151836
 C           -2.65712030       -0.71476896       -0.88775446
 C           -2.41928380        1.35810315        0.35106890
 C           -2.84489340        0.67313101       -0.79360920
 C           -1.37097847        3.41014190        1.20437845
 C           -2.31498169        2.75030536        0.31920262
 C            0.90922042        3.96680894        0.38377559
 C           -0.51333773        4.24212187        0.37690423
 C            1.74416229        1.97509761       -0.79424666
 C            1.20089321        3.25825072       -0.85368102
 C            1.71335738       -0.32182727       -1.55570543
 C            1.32902321        1.01487258       -1.71957992
 C            1.12325080       -2.63425503       -1.95811612
 C            1.21033850       -1.31383921       -2.40791251
 C           -0.70493747       -4.07932223       -1.21859187
 C           -2.00998352       -3.45297118       -1.09641397
 C           -0.00413790       -3.38613207       -2.28166177
 C           -2.74385522       -1.36687910       -2.13583252
 C           -2.20206830       -2.63915701       -2.27197085
 C           -1.02544068       -2.79425517       -3.11760641
 C           -2.79744386       -0.61428750       -3.30279727
 C           -3.17985052        1.41367409       -1.92758239
 C           -3.09302648        0.79360190       -3.23143823
 C           -2.24629290        3.43574616       -0.96197777
 C           -0.96916964        4.12293724       -0.99003423
 C            0.10587610        3.52699839       -1.76790301
 C           -2.59878078        2.72883497       -2.09463879
 C            0.50413702        1.38937697       -2.78850346
 C           -2.05222853        1.49660261       -3.97498275
 C           -0.24398316        2.57162408       -2.71203678
 C           -1.57980200        2.55525122       -3.11259812
 C            0.50132702       -0.94719603       -3.54816316
 C           -0.67195300       -1.72651750       -3.92692970
 C           -1.71861998       -0.78140557       -4.26019255
 C            0.19988913        0.45514123       -3.77675672
 C           -1.09523454        0.51338712       -4.43109822
