   70
C70 / DATE: 7/ 1/2024 / Origin: Program Fullerene / C70 from database
 C            1.62366167        0.02648221        4.56450536
 C            0.81343574       -1.17694774        4.51398292
 C            1.46393814       -2.11169520        3.61684491
 C            2.66116023       -0.09398060        3.55374742
 C            2.59670464       -1.42652518        3.00880345
 C            2.52745484        1.01445610        2.63999252
 C            0.77676866        1.14231854        4.18896539
 C            1.42979945        1.84570485        3.10276174
 C           -0.55319769       -0.78904464        4.23198031
 C           -0.56273092        0.63920540        3.95478930
 C           -1.32243212       -1.62809539        3.44397130
 C            0.68553734       -2.94184838        2.81033906
 C           -0.70425078       -2.78573989        2.80485793
 C            1.30567626       -3.52527594        1.70815022
 C            2.82014217       -1.62076211        1.65170242
 C            2.49498034       -2.88168441        1.17444293
 C            2.63874857        0.78767319        1.27108415
 C            2.78446250       -0.51811307        0.77146789
 C            2.16931548        1.78219312        0.42006418
 C            0.63173370        2.44106530        2.13593233
 C            1.19582414        2.67039978        0.88655895
 C           -1.24933872        1.12552278        2.84432528
 C           -0.74953716        2.26190375        2.20541556
 C           -2.24918249       -1.04473500        2.49126629
 C           -2.14779960        0.30009098        2.15779197
 C           -1.46440914       -3.06636996        1.59423014
 C           -2.45520802       -2.01025149        1.43247660
 C            0.51115148       -3.97097577        0.57540601
 C           -0.81959838       -3.57615404        0.47106961
 C            2.55057721       -3.14214018       -0.24092869
 C            1.37024333       -3.91457228       -0.59501468
 C            2.73193107       -0.72243756       -0.62236875
 C            2.62871095       -2.01496332       -1.13861401
 C            2.35666210        1.63738815       -0.94555003
 C            2.41430747        0.34550275       -1.47261237
 C            2.02535038        2.70825128       -1.76856472
 C            0.48884259        3.44894093       -0.02572789
 C            1.03759733        3.65807817       -1.28667495
 C           -1.53624305        2.86957285        1.23654631
 C           -0.88583533        3.59992200        0.15958878
 C           -2.69008734        0.73726070        0.94789230
 C           -2.61011087        2.09443750        0.64544213
 C           -2.75719517       -1.55643876        0.15484754
 C           -2.98475807       -0.19290762       -0.05980854
 C           -1.38225213       -3.35716503       -0.78719262
 C           -2.45090935       -2.38052840       -0.92482941
 C            0.84071158       -3.36932320       -1.82851250
 C            1.68993398       -2.25722426       -2.21795541
 C           -0.53008047       -3.24111234       -1.96478701
 C            1.79220907        0.06287412       -2.69745602
 C            1.13745916       -1.15111739       -2.84670377
 C            1.74726422        2.45104890       -3.16443846
 C            1.42658678        1.09527667       -3.54625855
 C            0.15840597        3.99119340       -2.39410930
 C            0.64797008        3.30602797       -3.57563676
 C           -1.78431849        3.56971651       -0.98589641
 C           -2.79515379        2.55774347       -0.71941257
 C           -1.25820861        3.70740986       -2.26404220
 C           -3.29003619        0.24382496       -1.34929513
 C           -3.13488030        1.64455742       -1.70420484
 C           -2.36426031       -1.82082951       -2.26275343
 C           -1.05568340       -2.16453902       -2.78517422
 C           -0.21112073       -1.14451594       -3.22034741
 C           -2.85016323       -0.54478743       -2.48742841
 C            0.07384252        1.08254387       -4.07440872
 C           -0.41889537        2.44954081       -4.06187811
 C           -1.61709384        2.74851548       -3.30107503
 C           -2.48270318        1.70374494       -3.00427717
 C           -0.77639044        0.04828012       -3.68406741
 C           -2.10503648        0.34413224       -3.36323769
