   70
C70 / DATE: 7/ 1/2024 / Origin: Program Fullerene / C70 from database
 C            0.96799616        0.05921250        4.66185202
 C            2.24968678       -0.30844158        4.10501312
 C            2.22619117       -1.74343440        3.88579627
 C            0.14404749       -1.14279450        4.69934221
 C            0.83646665       -2.15353409        3.92967275
 C           -1.19194496       -0.76733616        4.30209239
 C            0.19091306        1.08418174        3.99659307
 C           -1.19008404        0.67127960        4.10068135
 C            0.62414492        1.62079131        2.78307623
 C            2.66667812        0.30363139        2.86063545
 C            1.84771049        1.23208838        2.22402875
 C            2.97258422       -2.01610119        2.67512469
 C            3.29046262       -0.73127556        2.05763567
 C            2.51916950       -3.04171219        1.86147854
 C            0.26154098       -2.67784667        2.76808383
 C            1.09729458       -3.37173228        1.89514580
 C           -1.75286279       -1.35829981        3.10324602
 C           -0.97042843       -2.18886135        2.29980993
 C           -2.05713394        0.94473944        2.97706226
 C           -2.54434089       -0.32064651        2.46686218
 C           -0.31299889        2.25296912        1.96068998
 C           -1.66339517        1.88357890        2.04106185
 C            0.13278866        2.90385103        0.80540162
 C            2.07969562        1.49890281        0.87830008
 C            1.36033933        2.51944493        0.25835818
 C            3.25508154       -0.61067795        0.66780115
 C            2.77267772        0.56769901        0.09413644
 C            2.93148036       -3.03184719        0.47513980
 C            3.30762878       -1.76233504       -0.11603022
 C            0.66685321       -3.61709886        0.53315675
 C            1.84078774       -3.57227754       -0.31362517
 C           -1.32221707       -2.32399241        0.95022140
 C           -0.49293742       -3.01938573        0.06622927
 C           -2.78436203       -0.41504743        1.10031352
 C           -2.39552223       -1.57898599        0.44387393
 C           -2.42442055        1.96022334        0.88665901
 C           -2.92872946        0.76352496        0.35488245
 C           -0.82011284        3.53469781        0.00367200
 C           -2.18133758        3.04136915        0.05925706
 C           -0.52247651        3.85900310       -1.38039988
 C            1.68938881        2.86189950       -1.05168242
 C            0.72109691        3.53672676       -1.89898770
 C            2.68634870        0.65223022       -1.29430979
 C            2.39312149        1.88541294       -1.86329055
 C            2.74486143       -1.73383207       -1.45565889
 C            1.76538231       -2.80259163       -1.54114971
 C            2.42001596       -0.50844149       -2.02233895
 C           -0.62359140       -2.80007608       -1.30389655
 C            0.51468041       -2.49047339       -2.05868925
 C           -2.77161242       -1.73954743       -0.88445624
 C           -1.87281945       -2.43712060       -1.78515550
 C           -3.24950682        0.66620277       -1.00670308
 C           -3.30967632       -0.59367345       -1.59846602
 C           -2.72732702        3.04642113       -1.27610547
 C           -1.71724936        3.59083863       -2.16801592
 C           -3.18904560        1.79272931       -1.82832072
 C           -1.63190845        2.71812778       -3.32803636
 C           -2.63689895        1.67775482       -3.17129459
 C            0.80922401        2.95759163       -3.23012753
 C            1.82321034        1.91839461       -3.19786462
 C           -0.38305394        2.40003017       -3.84943574
 C            1.43044217       -0.47885868       -3.00716237
 C            0.44330082       -1.46987859       -3.00694535
 C            1.23590163        0.70013912       -3.72013001
 C           -0.08514579        1.02707649       -4.23012340
 C           -1.96747012       -1.80781401       -3.08933761
 C           -2.94390988       -0.73696882       -2.99718762
 C           -2.41140451        0.41492337       -3.70271640
 C           -0.76080364       -1.25769728       -3.67100758
 C           -1.08246622        0.06295015       -4.18373581
