   70
C70 / DATE: 7/ 1/2024 / Origin: Program Fullerene / C70 from database
 C            1.21380714        0.19104079        5.41544618
 C            0.51163576       -1.01984831        5.03783834
 C            1.49898659       -1.93393936        4.51181173
 C            2.54592594        0.13088749        4.82615629
 C            2.70003488       -1.16987424        4.21288409
 C            2.71171366        1.30170162        3.99561359
 C            0.51508616        1.30865830        4.81040205
 C            1.50600504        2.10690622        4.12832798
 C           -0.61009156       -0.65544163        4.18158684
 C           -0.59993195        0.78792079        4.03251176
 C           -0.89233965       -1.43619295        3.05949068
 C            1.15557755       -2.65442436        3.31191098
 C           -0.15181901       -2.60811495        2.84644712
 C            2.92859085       -1.26409669        2.77423064
 C            2.20809865       -2.43327631        2.33477796
 C            2.96246355        1.13706778        2.56914664
 C            2.89142588       -0.12389944        1.97709945
 C            1.18079202        2.58587039        2.80619685
 C            2.27662327        2.23298417        1.92920236
 C           -0.86645000        1.32468550        2.77328920
 C           -0.10235945        2.39997977        2.30370765
 C           -1.56908793       -0.84448692        1.97862259
 C           -1.57599720        0.54819591        1.84622906
 C           -1.97436524       -1.64385299        0.90868001
 C           -0.36469041       -3.29889728        1.67011015
 C           -1.50087974       -2.94912817        0.85344837
 C            1.84636110       -2.55343676        0.99991784
 C            0.76667107       -3.38979802        0.76135229
 C            2.45760433       -0.22729369        0.64637588
 C            2.03947149       -1.46630920        0.13163618
 C            1.96240291        2.13115384        0.58752204
 C            2.23238342        0.94325149       -0.08928255
 C           -0.28670704        2.77220350        0.98204538
 C            0.84834593        2.83923828        0.17223820
 C           -1.95924215        1.13553751        0.63352468
 C           -1.48084551        2.41864594        0.37376315
 C           -2.46479498       -1.05675990       -0.26314850
 C           -2.37849856        0.32688262       -0.43472597
 C           -2.71023387       -1.87074079       -1.37054408
 C           -1.21520283       -3.53149621       -0.43713236
 C            0.23257523       -3.47315254       -0.57059009
 C           -1.96724482       -3.11475982       -1.51395714
 C            1.51293691       -1.53313296       -1.17176574
 C            0.77377765       -2.66291094       -1.55838128
 C            1.79376358        0.86094303       -1.41239467
 C            1.50521911       -0.38498743       -1.97836327
 C            0.65238866        2.96795684       -1.19030282
 C            1.27264058        2.01604681       -2.00583026
 C           -1.73543693        3.00451890       -0.85499105
 C           -0.57691733        3.48540222       -1.57650354
 C           -2.64491786        0.90448692       -1.68890150
 C           -2.53295608        2.28662570       -1.82179639
 C           -2.81174722       -1.27845251       -2.69197928
 C           -2.76655888        0.10140165       -2.83451408
 C           -1.28608050       -3.04466995       -2.78912270
 C            0.12078104       -2.67536718       -2.78322702
 C           -1.99043804       -2.07318901       -3.58975394
 C            1.01067104       -0.44744972       -3.29111018
 C            0.28059816       -1.56447136       -3.69521076
 C           -0.99659031       -1.38159306       -4.38192633
 C            1.01310081        2.00732849       -3.37064478
 C            0.88068465        0.72595781       -4.03752999
 C           -0.91750561        3.52832598       -2.97818920
 C           -2.20994109        2.87163281       -3.11422186
 C           -0.00328531        2.90183791       -3.90607893
 C           -2.36612976        0.59332463       -4.08300023
 C           -1.32003351       -0.11036653       -4.81312001
 C           -0.23443621        0.83054133       -4.96473738
 C           -2.13627068        2.00904406       -4.26934674
 C           -0.80911741        2.15762421       -4.85121956
