   70
C70 / DATE: 7/ 1/2024 / Origin: Program Fullerene / C70 from database
 C            1.69627397       -0.14630437        5.05271431
 C            0.82260610       -1.29701496        5.19639722
 C            1.29264231       -2.31265182        4.28018273
 C            2.60926993       -0.40444985        3.94983844
 C            2.36227975       -1.74356557        3.47188844
 C            2.48949234        0.68636447        3.00772074
 C            0.87065681        0.97799036        4.66579725
 C            1.51483374        1.62690406        3.53660146
 C           -0.50979927       -0.91350367        4.75426885
 C           -0.48711974        0.50256576        4.46915327
 C            0.12895313       -2.83224303        3.58598941
 C           -0.90952901       -1.81893660        3.69257097
 C            0.34644390       -3.39003546        2.34407380
 C            2.32459295       -1.98153685        2.10134663
 C            1.61613770       -3.10302652        1.69750567
 C            2.45425278        0.40799639        1.64381014
 C            2.47726437       -0.91912375        1.18809164
 C            1.97670115        1.40035568        0.79615385
 C            0.69464620        2.27652597        2.62253720
 C            1.15393673        2.40805647        1.31539902
 C           -1.14635338        0.96935100        3.34314178
 C           -0.68013428        2.15921919        2.80447410
 C           -1.47121648       -1.28803723        2.52471170
 C           -1.78264814        0.07088315        2.47323653
 C           -0.65566641       -3.18894140        1.31898951
 C           -1.40786649       -2.02255267        1.33540681
 C            1.41730866       -3.32159699        0.29256525
 C           -0.00189084       -3.56326140        0.09340357
 C            2.32875002       -1.17144669       -0.19241752
 C            2.04599455       -2.48063617       -0.61190712
 C            2.04933716        1.20660571       -0.57597155
 C            2.11513540       -0.09470635       -1.07859481
 C            1.69109853        2.25768594       -1.40726946
 C            0.40789059        3.20218382        0.44395000
 C            0.78437791        3.26801249       -0.89482261
 C           -1.50667667        2.79130999        1.89797449
 C           -0.89337406        3.53534568        0.81700096
 C           -2.36747751        0.59448876        1.31821860
 C           -2.53510654        1.97633455        1.28600479
 C           -1.73350875       -1.41247417        0.11465916
 C           -2.26539852       -0.11848976        0.11042271
 C           -0.52408263       -3.13534182       -1.10919660
 C           -1.41770399       -2.04955288       -1.10199947
 C            1.69971584       -2.70163919       -1.93603970
 C            0.36593682       -3.23189844       -2.16490509
 C            1.88270518       -0.33207634       -2.44429311
 C            1.87828531       -1.64553957       -2.90102717
 C            1.34059561        1.99653090       -2.78655055
 C            1.41987202        0.69947842       -3.27973916
 C           -0.20723598        3.54510730       -1.92665189
 C            0.18825694        2.82528762       -3.12401698
 C           -1.92371605        3.67660618       -0.19315200
 C           -2.90565658        2.62692390        0.05436252
 C           -1.55434323        3.60307601       -1.59062441
 C           -2.61694751        0.48482361       -1.10787007
 C           -2.98789018        1.83091454       -1.14367265
 C           -2.48096926        2.67067980       -2.21165115
 C           -1.73201347       -1.42123640       -2.32025941
 C           -2.30501438       -0.14216869       -2.31785905
 C           -0.06263419       -2.79534659       -3.46137881
 C            1.02986836       -2.01438200       -4.01805280
 C           -1.23832390       -1.96326300       -3.51689046
 C            0.73210520        0.40582395       -4.46124731
 C            0.42617563       -0.96539126       -4.80040745
 C           -1.01741747       -1.11100320       -4.66530121
 C           -0.79959201        2.30367030       -3.95047399
 C           -2.12258758        2.05389991       -3.39416788
 C           -2.33448095        0.62508278       -3.49076090
 C           -0.47169186        1.15272486       -4.77030481
 C           -1.57832627        0.21456515       -4.65108637
