   70
C70 / DATE: 7/ 1/2024 / Origin: Program Fullerene / C70 from database
 C            1.22125812       -0.03436669        4.37950460
 C            2.50721119       -0.30274450        3.78223157
 C            2.46262251       -1.64533970        3.21937790
 C            0.39553856       -1.21813534        4.19633161
 C            1.08333131       -2.08981343        3.27208333
 C           -0.93391193       -0.76866369        3.85021149
 C            0.45501508        1.09898290        3.90086044
 C           -0.93570225        0.68489752        3.89555347
 C            0.92779713        1.87627041        2.84492445
 C            2.97696925        0.57366578        2.73075862
 C            2.11854610        1.53343311        2.18660909
 C            3.12487005       -1.58916150        1.92601046
 C            3.73327990       -0.27381642        1.83059295
 C            2.47264576       -2.11015912        0.80873436
 C            0.45640404       -2.44218459        2.08264370
 C            1.25054765       -2.76288363        0.98240190
 C           -1.61846327       -1.39067161        2.81343843
 C           -0.90822133       -2.17636458        1.89254204
 C           -2.80407163       -0.78680812        2.41316276
 C           -1.84425623        1.36351378        3.08886590
 C           -2.94576492        0.64669641        2.62442432
 C            0.02333439        2.72778683        2.22164031
 C           -1.40535403        2.49014529        2.38529213
 C            0.25421076        3.13985377        0.84939134
 C            2.35872411        1.98252208        0.88164740
 C            1.34661300        2.63007633        0.16487010
 C            4.02694501        0.21795490        0.57397751
 C            3.48962106        1.51531583        0.21228097
 C            2.82967316       -1.64660462       -0.46226714
 C            3.78390690       -0.63951902       -0.57019141
 C            2.04760164       -1.99302623       -1.56947745
 C            0.65295916       -3.36698598       -0.11223230
 C            1.16471631       -3.05893203       -1.43378637
 C           -1.50137989       -2.53198827        0.67642184
 C           -0.79500495       -3.35525877       -0.19348759
 C           -3.36931476       -1.10125092        1.11569488
 C           -2.60262468       -1.81303840        0.20499411
 C           -3.74974753        1.17657825        1.54188685
 C           -4.08468854        0.07010722        0.65897557
 C           -2.06268208        2.89958310        1.14996607
 C           -1.03057321        3.20807201        0.17486255
 C           -3.21423235        2.25297787        0.73274461
 C           -1.13650529        2.72742977       -1.12821590
 C            1.27759985        2.51437091       -1.22700318
 C            0.03592702        2.54079371       -1.87146124
 C            3.54281746        1.58592742       -1.23366531
 C            3.76002328        0.22963234       -1.72500703
 C            2.40239181        2.11845029       -1.94594573
 C            1.91489610       -1.10540191       -2.65169573
 C            2.77807978       -0.01582589       -2.76147388
 C            2.22565623        1.27800834       -3.11420988
 C            0.75792811       -1.11507351       -3.44319901
 C            0.06966705       -3.20583891       -2.36835944
 C           -1.15342867       -3.37725213       -1.59695869
 C           -0.16227615       -2.15402477       -3.33243575
 C           -2.76176712       -1.57882530       -1.16962488
 C           -2.12215241       -2.41401366       -2.08171027
 C           -1.58561253       -1.84895513       -3.30622539
 C           -3.87302290        0.50823886       -0.70152031
 C           -3.34228154        1.86207888       -0.65885894
 C           -2.35959048        2.20810441       -1.58303855
 C           -3.32512478       -0.37735297       -1.62334804
 C           -2.01214518       -0.59120133       -3.70455509
 C           -2.40961363        1.54902461       -2.80760368
 C           -2.87922872        0.17282755       -2.82305968
 C           -0.03985285        2.15561840       -3.20823196
 C            1.00456681        1.31086178       -3.75915366
 C            0.37202533        0.05059559       -4.10457653
 C           -1.29409692        1.65194245       -3.71949528
 C           -1.04322826        0.32914399       -4.27383434
