   70
C70 / DATE: 7/ 1/2024 / Origin: Program Fullerene / C70 from database
 C            1.53017271       -0.24319556        5.08893693
 C            0.66472870       -1.39696276        4.97026568
 C            1.22665978       -2.25501755        3.94436528
 C            2.59065708       -0.38092514        4.10180040
 C            2.31664962       -1.54961949        3.30073949
 C            2.69689501        0.88028114        3.41961964
 C            0.75176475        0.92475898        4.71757501
 C            1.58172563        1.71390884        3.84644801
 C           -0.62418027       -0.93637683        4.47771213
 C           -0.51797884        0.47874291        4.19123738
 C            0.12919300       -2.67429145        3.10913211
 C           -1.00504689       -1.81685475        3.39507696
 C            0.37979020       -2.90489225        1.77138690
 C            2.29025794       -1.43206505        1.90834541
 C            1.52566956       -2.34780324        1.18636674
 C            3.00414602        0.89371409        2.06307812
 C            2.69100521       -0.23839742        1.28338248
 C            2.92110964        2.14596633        1.47341262
 C            0.97647031        2.47164154        2.85720407
 C            1.86919760        3.02495487        1.95717991
 C           -0.90612227        0.93160710        2.93105559
 C           -0.27887312        2.05487263        2.36884046
 C           -1.67390010       -1.28488291        2.29541379
 C           -1.69059102        0.10508257        2.11933017
 C           -0.73602696       -3.02766718        0.96385914
 C           -1.75552403       -2.09099931        1.15507693
 C           -0.50935987       -3.53515899       -0.29740305
 C            1.61263343       -2.35859548       -0.20480341
 C            0.79658336       -3.27446323       -0.86709208
 C            2.52257112       -0.10781444       -0.11159446
 C            2.01455754       -1.18633315       -0.86436552
 C            2.95174367        2.26082162        0.03913499
 C            2.77801742        1.12347301       -0.73619608
 C            1.35289253        3.76504503        0.83812313
 C            2.19743879        3.45576719       -0.29883162
 C           -0.73749625        2.53328752        1.12897940
 C           -0.01085567        3.50912793        0.44478397
 C           -2.19093977        0.60878939        0.92458042
 C           -1.72322403        1.82935907        0.43247114
 C           -2.46474282       -1.60897656        0.05231504
 C           -2.84316850       -0.26296632        0.05789942
 C           -1.49104233       -3.31661141       -1.33261744
 C           -2.46023134       -2.33882490       -1.14549416
 C            0.63699374       -3.19335745       -2.29810233
 C           -0.77755078       -3.36106408       -2.59384782
 C            1.81444973       -1.04931608       -2.25326907
 C            1.08700867       -1.99897727       -2.96295109
 C            2.42786912        1.31029089       -2.06861227
 C            1.95317191        0.19276960       -2.84800016
 C            1.34632357        3.41671123       -1.46831685
 C           -0.03277095        3.52064494       -1.00844053
 C            1.64038428        2.47926948       -2.44284708
 C           -2.01052550        2.18380074       -0.89007744
 C           -1.01502040        2.78767126       -1.66271659
 C           -3.52126466        0.27580696       -1.02605793
 C           -3.07328418        1.55946259       -1.53456716
 C           -3.10330605       -1.82825898       -2.27142990
 C           -3.82056241       -0.57718655       -2.15620093
 C           -1.14108957       -2.40379163       -3.61882926
 C            0.02201397       -1.55344255       -3.85373121
 C           -2.39887970       -1.82328584       -3.55042640
 C            0.89793610        0.67546916       -3.72928272
 C            0.56631804        2.02001119       -3.29836960
 C           -0.74853056        2.30045165       -2.94814557
 C           -0.13695963       -0.18468333       -4.09009376
 C           -3.03453421        1.46902211       -2.97999317
 C           -3.58731582        0.18527662       -3.36928519
 C           -2.57690215       -0.51580588       -4.14169706
 C           -1.74928460        1.62118680       -3.62931786
 C           -1.41791449        0.34981805       -4.26212208
