   70
C70 / DATE: 7/ 1/2024 / Origin: Program Fullerene / C70 from database
 C            1.11038415       -0.17898729        4.65417197
 C            2.35914673       -0.51131606        4.00113861
 C            2.16799922       -1.77432292        3.30305929
 C            0.24016187       -1.33282151        4.51721623
 C            0.77179433       -2.13907880        3.43603429
 C           -1.10806019       -0.83179969        4.39832436
 C            0.36655759        0.97222462        4.17211531
 C           -1.03325767        0.61801649        4.24776330
 C            0.84020440        1.65986597        3.05615330
 C            2.89752930        0.42786871        3.03878456
 C            2.20975377        1.60839746        2.77618761
 C            2.71957204       -1.62346674        1.97049513
 C            3.38199079       -0.33605834        1.90282174
 C            1.96982194       -2.01807220        0.88002820
 C            0.01343116       -2.32444518        2.27944406
 C            0.66337469       -2.49021870        1.05477692
 C           -1.92984379       -1.31442273        3.30884322
 C           -1.36816955       -2.10266915        2.29904780
 C           -1.90488644        0.97413627        3.14577234
 C           -2.74457611       -0.18444022        2.91851807
 C           -0.05672413        2.09959378        2.06491951
 C           -1.37645758        1.63781516        2.04015080
 C            0.43177396        2.81013353        0.96788614
 C            2.69956825        2.38233528        1.73772523
 C            1.77046771        3.19557382        0.98838722
 C            3.46760094        0.32816950        0.67750567
 C            3.52902754        1.71583143        0.74775880
 C            2.35707333       -1.55218470       -0.36694523
 C            2.92212956       -0.27543801       -0.47247695
 C            1.80637467       -2.16321431       -1.47958826
 C           -0.07614298       -2.85068159       -0.07039296
 C            0.58819794       -2.93140183       -1.29518297
 C           -2.09497443       -2.24689095        1.11424124
 C           -1.47141061       -2.75657147       -0.03087581
 C           -3.40862317       -0.27486555        1.71430861
 C           -3.27154279       -1.50944769        0.97265184
 C           -2.05374857        1.55652113        0.81987301
 C           -3.20284067        0.77848330        0.73702066
 C           -0.27485382        2.76865722       -0.24344732
 C           -1.41807380        1.97539502       -0.34928120
 C            0.26177350        3.32993191       -1.39591151
 C            2.45285424        3.53045137       -0.24443125
 C            3.45275768        2.49361903       -0.46485599
 C            1.67545428        3.64243101       -1.45352977
 C            2.72909363        0.47429210       -1.64902404
 C            3.10362513        1.81633465       -1.69129266
 C            2.26717078        2.73647023       -2.42462660
 C            1.67549002       -1.40859395       -2.70804437
 C            1.93674038       -0.04133585       -2.68609380
 C           -0.15521067       -2.88061006       -2.53761671
 C            0.51431838       -1.92314783       -3.41393093
 C           -2.21536248       -2.88054746       -1.20965670
 C           -1.53973294       -2.95098010       -2.49617886
 C           -3.76473131       -1.21570875       -0.35272413
 C           -3.58921108        0.22144380       -0.54357825
 C           -3.40993117       -2.06663928       -1.38244055
 C           -1.89951375        1.57737868       -1.61469111
 C           -2.97591617        0.67580655       -1.70581213
 C           -0.06015435        2.72484574       -2.66697075
 C            1.18242968        2.18150302       -3.19575470
 C            1.20162325        0.82849188       -3.51136021
 C           -1.19210216        1.92812263       -2.77773996
 C           -0.22543053       -1.06003268       -4.20686090
 C            0.05798936        0.36023491       -4.15022795
 C           -1.18843441        1.04082401       -3.84737930
 C           -2.32628355       -2.19754527       -3.45574780
 C           -3.37574589       -1.51576272       -2.72067069
 C           -3.15447020       -0.08790306       -2.86106145
 C           -1.66852261       -1.20737617       -4.28649880
 C           -2.26031660        0.08779855       -3.98022248
