   70
C70 / DATE: 7/ 1/2024 / Origin: Program Fullerene / C70 from database
 C            1.41622502        0.02490417        4.23520307
 C            2.50751674       -0.10815941        3.29065859
 C            2.34810279       -1.38262010        2.60114828
 C            0.57680446       -1.15370220        4.11094691
 C            1.09194367       -1.96311070        3.01800838
 C           -0.80430548       -0.71448940        4.05237873
 C            0.56419580        1.19288178        4.15509653
 C           -0.79502526        0.73299066        3.89632970
 C            1.03770861        2.31473956        3.49278173
 C            2.93393462        1.00276575        2.56254999
 C            2.24120583        2.21444460        2.67255547
 C            3.69564428        0.77299601        1.41907368
 C            2.73997835       -1.46790975        1.27408545
 C            3.71624416       -0.56923551        0.86357862
 C            1.86458482       -2.02051701        0.32464107
 C            0.20324098       -2.43104335        2.05910154
 C            0.57868721       -2.44629244        0.71131855
 C           -1.68636861       -1.45630541        3.28723803
 C           -1.14779675       -2.46772943        2.38906242
 C           -2.70148669       -0.75336046        2.53409618
 C           -1.55772023        1.33203856        2.88630212
 C           -2.46191062        0.56285177        2.14766463
 C            0.08861541        3.15186206        2.78554066
 C           -1.19918306        2.59126967        2.41462357
 C            2.03477806        3.02716529        1.48046366
 C            0.72890098        3.63591969        1.57450736
 C            3.56897961        1.68282006        0.29382720
 C            2.47919986        2.54141347        0.25611618
 C            4.03406845       -0.45385083       -0.53941815
 C            3.94953118        0.95510815       -0.89477946
 C            2.23952885       -2.04884118       -1.02932308
 C            3.23291114       -1.19177795       -1.48760291
 C            1.35542954       -2.53834189       -1.97976923
 C           -0.34326141       -2.87603605       -0.25288662
 C            0.07117874       -3.05797100       -1.56548657
 C           -2.13164986       -2.67231009        1.34563245
 C           -3.19682242       -1.69963572        1.55692421
 C           -1.70790879       -2.93850167        0.04893509
 C           -3.87380281       -1.21308679        0.45309946
 C           -2.85342900        0.98682778        0.87068449
 C           -3.70000885        0.18938558        0.10497752
 C           -1.42844044        2.90789141        1.01712892
 C           -0.19193816        3.44430973        0.48102155
 C           -2.15367006        2.01259765        0.23903010
 C            1.61018985        2.51693308       -0.85239474
 C            0.27241041        2.92577087       -0.71621679
 C            3.11123799        1.05879563       -2.06649581
 C            2.91965232       -0.28751150       -2.57968150
 C            2.02717937        1.92934063       -2.06236584
 C            1.15780456       -1.77917712       -3.20842120
 C            1.79809370       -0.54579124       -3.36073022
 C           -0.86797351       -2.83359716       -2.65205890
 C           -0.22685676       -1.95965169       -3.62319717
 C           -2.64835176       -2.83896711       -0.97639592
 C           -3.80089531       -1.98101090       -0.77476970
 C           -2.21184666       -2.66422951       -2.35080580
 C           -3.63446546        0.28413571       -1.34463576
 C           -3.84976996       -1.04831679       -1.88279141
 C           -2.94543587       -1.53472369       -2.91002759
 C           -1.86606710        1.90743991       -1.12672702
 C           -0.67269492        2.45802672       -1.61639264
 C           -2.66931843        1.09443684       -1.93814165
 C            1.11905837        1.80098855       -3.11208011
 C            1.08886755        0.54787283       -3.85475726
 C           -0.25564883        2.20671080       -2.90998595
 C           -0.93383885       -0.89406423       -4.16531663
 C           -2.27004550       -0.59638234       -3.67773704
 C           -2.26971066        0.79104521       -3.23905423
 C           -0.25763564        0.37230686       -4.36765296
 C           -1.08834953        1.41726461       -3.78823225
