   70
C70 / DATE: 7/ 1/2024 / Origin: Program Fullerene / C70 from database
 C            1.60902287        0.02577179        4.58315440
 C            0.79789556       -1.17118471        4.49047170
 C            1.21461565       -1.91595030        3.31451782
 C            2.57756006       -0.01900728        3.50587998
 C            2.34406605       -1.21681625        2.72569238
 C            2.50997476        1.24728201        2.81350002
 C            0.73584842        1.16288582        4.33714456
 C            1.28139197        1.90080134        3.22154792
 C           -0.58533279       -0.75575741        4.56979055
 C           -0.61583907        0.66385573        4.23257294
 C           -1.53020296       -1.57809107        3.98241273
 C            0.22857990       -2.43941279        2.48091720
 C           -1.07935281       -2.52090519        2.96237456
 C            0.44902153       -2.48631327        1.10200021
 C            2.42156314       -1.11216307        1.34303209
 C            1.61050881       -1.92017409        0.55703326
 C            2.79412271        1.26509771        1.45920153
 C            2.94864603        0.05069648        0.78029316
 C            2.31958896        2.34877536        0.73466012
 C            0.43433235        2.35477241        2.21420508
 C            1.04232398        2.82790966        1.04851872
 C           -1.42823378        1.09566168        3.18155624
 C           -0.88672752        1.87480343        2.14386604
 C           -2.72944065       -0.94965226        3.47086672
 C           -2.62214787        0.40787873        2.96700300
 C           -2.17405369       -2.71020322        2.02632371
 C           -3.22885577       -1.78160471        2.39664255
 C           -0.56528857       -2.94998427        0.25834877
 C           -1.89663490       -2.88161008        0.67462220
 C           -0.28548537       -3.16132641       -1.08827243
 C            1.79485836       -1.90199528       -0.82302542
 C            0.97877252       -2.69450727       -1.62366631
 C            3.14848393        0.09850034       -0.60156189
 C            2.59505298       -0.91127428       -1.40429843
 C            2.84043399        2.51521510       -0.53961204
 C            3.43504765        1.34778444       -1.15642723
 C            2.06549338        3.19507415       -1.56030572
 C            0.23253585        3.35367894        0.04973453
 C            0.73357563        3.47588213       -1.30867947
 C           -1.62343130        2.05814185        0.96521971
 C           -1.14621819        2.91656797       -0.01660117
 C           -3.24557076        0.43435693        1.65451660
 C           -3.75273166       -0.90133333        1.37201669
 C           -2.64301405        1.16698817        0.63860184
 C           -2.87596074       -2.50014081       -0.24235870
 C           -3.71718008       -1.35364422        0.06480857
 C           -1.31302167       -2.88863697       -2.08170368
 C           -2.55086388       -2.42828935       -1.65639336
 C            0.76499392       -2.33752762       -3.01575816
 C           -0.67184182       -2.26727971       -3.22905433
 C            2.66507522       -0.82437437       -2.79753755
 C            1.59343303       -1.38895688       -3.59656563
 C            3.38688915        1.54733136       -2.58856620
 C            2.43438128        2.61913512       -2.84163375
 C            3.03053958        0.42817440       -3.42891861
 C            1.00769374       -0.29631204       -4.36168980
 C            1.39328050        2.08202888       -3.69808354
 C            1.90395524        0.83916789       -4.25105623
 C           -0.29033310        2.96546965       -2.20947052
 C           -1.46011949        2.63757276       -1.40706829
 C            0.06267077        2.14973383       -3.28615876
 C           -2.86238581        0.81428023       -0.69860727
 C           -3.49127967       -0.39328361       -0.99437383
 C           -3.05423487       -1.15303484       -2.14962813
 C           -2.21154962        1.51145335       -1.71994764
 C           -1.22998912       -1.12475460       -3.79359992
 C           -0.35961664       -0.06982334       -4.28407644
 C           -0.84423075        1.19480888       -3.74318520
 C           -2.37082611       -0.48836081       -3.15520768
 C           -2.04423436        0.91614723       -2.96995476
