   70
C70 / DATE: 7/ 1/2024 / Origin: Program Fullerene / C70 from database
 C            1.22916485        0.13412035        4.72674962
 C            2.45533289        0.00612730        3.97326095
 C            2.49568281       -1.35579299        3.48162690
 C            0.40028348       -1.02421889        4.40295403
 C            1.13722069       -1.84246874        3.46251253
 C           -0.90488976       -0.53290381        4.02056944
 C            0.42519553        1.31388754        4.50331664
 C           -0.94792877        0.86580459        4.37763386
 C            0.70505783        2.13951029        3.33812741
 C            2.66462801        0.87266037        2.82143613
 C            1.64086483        1.71355827        2.40058113
 C            3.19068502       -1.31782471        2.22362633
 C            3.36161789        0.07688966        1.84318913
 C            2.78030744       -2.17507027        1.22027018
 C            0.57164398       -2.15098655        2.22511939
 C            1.41404680       -2.51523256        1.16436311
 C           -1.44049640       -0.89645505        2.79105770
 C           -0.75501830       -1.79335425        1.95612209
 C           -2.47660655       -0.12020459        2.26303083
 C           -1.59761759        1.76345982        3.45024454
 C           -0.57076859        2.62560394        2.87950867
 C           -2.54441769        1.24718780        2.57242340
 C           -0.72418177        2.99371228        1.55282475
 C            1.35996987        1.84079416        1.03027250
 C            0.23886049        2.57978197        0.61301055
 C            3.23698150        0.38009701        0.49222396
 C            2.18613404        1.21566734        0.07557965
 C            3.45491983       -1.99271279        0.02908352
 C            3.67882718       -0.61352836       -0.37359459
 C            3.02896680       -2.73709841       -1.12540322
 C            0.83987720       -2.89536506       -0.05899528
 C            1.66583337       -3.20722806       -1.14259256
 C           -1.32844558       -2.16335478        0.73841254
 C           -0.52985905       -2.70694059       -0.27180848
 C           -3.18817541       -0.62412564        1.18101566
 C           -2.62416088       -1.73855811        0.44181544
 C           -3.79035161        0.28538559        0.21877848
 C           -2.99084303        2.13519639        1.60012476
 C           -2.04164213        3.13254111        1.14058848
 C           -3.71463951        1.64976344        0.44135219
 C           -2.31883781        3.41407371       -0.24003399
 C           -3.39751750        2.53208780       -0.66635578
 C           -0.01516435        2.74139603       -0.75791854
 C           -1.24035824        3.26496843       -1.18614994
 C            1.84427867        1.27692062       -1.28738296
 C            0.81027752        2.12816174       -1.70432090
 C            3.38129210       -0.51829105       -1.77854538
 C            3.20796843       -1.87447943       -2.27620382
 C            2.51041087        0.46271114       -2.22380099
 C            1.18089568       -3.02384660       -2.50077131
 C            2.11153272       -2.13601946       -3.18942564
 C           -1.06264365       -2.88073147       -1.55143774
 C           -0.18260188       -2.88531571       -2.70550269
 C           -3.04246218       -1.59864150       -0.94287328
 C           -3.53350533       -0.24336134       -1.11320642
 C           -2.25967592       -2.15640747       -1.93486292
 C           -2.99774946        1.96031837       -1.93936053
 C           -1.85218661        2.73216161       -2.38590473
 C           -2.98340547        0.57510394       -2.10292213
 C            0.39546296        2.12958763       -3.04029604
 C           -1.02265967        2.17610695       -3.33335001
 C            1.97396455        0.28014830       -3.49349475
 C            1.61571073       -1.06452398       -3.91836419
 C            0.95240265        1.17358285       -3.96795085
 C           -0.68048834       -1.88623698       -3.64207680
 C           -1.92603398       -1.35719485       -3.10175284
 C           -2.16145474        0.01954784       -3.08845582
 C           -1.36206301        0.86671803       -3.85686021
 C            0.21112634       -1.03494531       -4.28272468
 C           -0.14857476        0.35807517       -4.46810650
