   70
C70 / DATE: 7/ 1/2024 / Origin: Program Fullerene / C70 from database
 C            1.32604120       -0.04702019        4.66715415
 C            2.60154002       -0.31921335        4.03145349
 C            2.57713255       -1.69077926        3.55435533
 C            0.50655033       -1.24191864        4.55520853
 C            1.23968004       -2.21745128        3.76665178
 C           -0.81586593       -0.84079186        4.11342475
 C            0.53810877        1.07859047        4.19933144
 C           -0.78279893        0.58744265        3.83996687
 C            1.13460306        2.03565575        3.38964433
 C            3.03215900        0.52632065        2.93147145
 C            2.39749568        1.74098033        2.71769279
 C            3.12321269       -1.70727127        2.21091939
 C            3.30990660       -0.32791765        1.78841246
 C            2.59937511       -2.61074242        1.30308759
 C            0.59339744       -2.86522887        2.71466206
 C            1.33983830       -3.27621203        1.61148904
 C           -1.50053705       -1.67178072        3.24398106
 C           -0.79396162       -2.77666112        2.60956025
 C           -2.36210855       -1.07826479        2.24058610
 C           -1.41219090        1.09753385        2.70160115
 C           -2.23166387        0.26718112        1.92349965
 C            0.30497133        2.76276347        2.44629787
 C           -0.99665387        2.33485242        2.19826807
 C            2.29445425        2.24581792        1.36046208
 C            1.14394359        3.12353392        1.31713042
 C            2.89478204        0.06587500        0.51282311
 C            2.51991925        1.39503329        0.28242648
 C            2.55468649       -2.24294366       -0.09792095
 C            2.65246439       -0.90484368       -0.46588770
 C            0.67896194       -3.56560703        0.34652798
 C            1.53367945       -3.05946542       -0.71892754
 C           -1.44943726       -3.03692815        1.33617873
 C           -2.49351995       -2.03573195        1.16295403
 C           -0.70369087       -3.43823080        0.23017737
 C           -2.77411912       -1.57753500       -0.11765008
 C           -2.70263873        0.71196715        0.68886250
 C           -2.98130575       -0.21038449       -0.32989695
 C           -1.64795484        2.87311119        1.09461339
 C           -2.63356993        2.06970199        0.40190788
 C            0.53424560        3.34841860        0.09175174
 C           -0.84627366        3.53184417        0.07608675
 C            2.00819978        1.75781890       -0.96304191
 C            1.15624678        2.86749930       -1.05887990
 C            2.15319976       -0.51963446       -1.70953470
 C            2.07234329        0.83897204       -2.00834816
 C            0.94804607       -2.60427199       -1.89002880
 C            1.45508031       -1.45219131       -2.49009919
 C           -1.25111875       -3.25814899       -1.03815408
 C           -2.40505306       -2.38761069       -1.18710576
 C           -0.36503649       -2.97866694       -2.15465825
 C           -2.38602260       -1.84872919       -2.53743815
 C           -1.13121203       -2.25269322       -3.15654472
 C           -3.26833598        0.24010917       -1.61894156
 C           -2.88969361       -0.57483104       -2.76093774
 C           -2.68532199        2.52831378       -0.97624290
 C           -1.56757546        3.43830139       -1.18358950
 C           -3.04133247        1.63089175       -1.97142115
 C            0.59707671        3.19836557       -2.28891746
 C           -0.84213307        3.38327086       -2.36751526
 C            1.75324345        1.24369282       -3.29899575
 C            1.01731240        2.47804679       -3.47430393
 C            0.92573671       -1.06394325       -3.71665635
 C           -0.46450629       -1.37419566       -4.00117148
 C            1.19131481        0.27153865       -4.21304496
 C           -2.25587720        0.29276779       -3.74236302
 C           -2.36099176        1.66412983       -3.25783094
 C           -1.32661824        2.57146497       -3.47137677
 C           -0.17091466        2.18079935       -4.25957826
 C           -1.11037029       -0.13703605       -4.40730314
 C           -0.05854437        0.81226953       -4.72631505
