   70
C70 / DATE: 7/ 1/2024 / Origin: Program Fullerene / C70 from database
 C            1.72916708        0.07060711        4.68426540
 C            0.90125139       -1.12167108        4.63974708
 C            1.43124259       -1.98971007        3.60562971
 C            2.65333305        0.00959117        3.56478202
 C            2.53286445       -1.29260022        2.95508814
 C            2.42551986        1.16320203        2.72918481
 C            0.86266399        1.21606242        4.47813640
 C            1.32888466        1.92653461        3.29962181
 C           -0.48417659       -0.70586480        4.55370865
 C           -0.51044749        0.75067485        4.50489771
 C           -1.34683076       -1.44022342        3.74842254
 C            0.55717960       -2.72876170        2.81068824
 C           -0.82211967       -2.51963048        2.92029326
 C            1.06383731       -3.25332792        1.62598253
 C            2.65328712       -1.40748910        1.57371238
 C            2.21348227       -2.59913111        1.02036112
 C            2.45803630        1.00943089        1.35105323
 C            2.65613405       -0.25162501        0.77534818
 C            1.85586595        1.99273305        0.58410625
 C            0.39082770        2.48354744        2.43183627
 C            0.73914933        2.66259222        1.09325229
 C           -1.43069278        1.39392007        3.68860996
 C           -0.96079344        2.41410391        2.76027282
 C           -2.38476692       -0.76164425        2.98757569
 C           -2.45632297        0.62248811        3.00357783
 C           -1.66801558       -2.61186058        1.73604155
 C           -2.55555202       -1.46561305        1.72615734
 C            0.15662347       -3.59201501        0.54663234
 C           -1.12040083       -3.03977981        0.53720795
 C            2.08513174       -2.71941641       -0.41581427
 C            0.94452299       -3.57988519       -0.67318693
 C            2.55356875       -0.36233993       -0.62051369
 C            2.27550021       -1.60071746       -1.21722271
 C            2.09023163        2.00156638       -0.78228807
 C            2.47821907        0.80251540       -1.39273665
 C            1.50137163        3.02027669       -1.52397283
 C           -0.20133072        3.19385327        0.20741606
 C            0.22510000        3.53859730       -1.07361955
 C           -1.94783230        2.51356032        1.70083655
 C           -2.78420574        1.32553193        1.77720059
 C           -1.55927959        2.96019946        0.44236822
 C           -2.72153350       -0.74628032        0.54342297
 C           -3.03603986        0.61613172        0.60542634
 C           -1.63825716       -2.55168542       -0.66268969
 C           -2.32675698       -1.32586390       -0.67154409
 C            0.28341354       -3.44030599       -1.87961849
 C           -1.12012451       -3.07148424       -1.84515833
 C            1.83454066       -1.65415841       -2.54357004
 C            0.89492289       -2.62038389       -2.90869222
 C            2.49269213        0.68557700       -2.78088207
 C            2.03427601       -0.55431844       -3.37419426
 C            1.46414376        2.94642951       -2.96812843
 C            2.00230752        1.76954895       -3.61110179
 C           -0.69773075        3.42896133       -2.19241819
 C            0.07260481        3.07942986       -3.37120065
 C           -2.38136558        2.61600434       -0.62731942
 C           -3.09828747        1.35284886       -0.56949889
 C           -1.91912939        2.81118605       -1.98814301
 C           -2.58052901       -0.65292890       -1.87687041
 C           -2.92633172        0.68907564       -1.84361435
 C           -2.25649370        1.61387074       -2.74788583
 C           -1.42530393       -2.42994275       -3.10423333
 C           -0.17146799       -2.25692177       -3.82119064
 C           -2.09724577       -1.15339027       -3.07991688
 C            1.02894939       -0.21775423       -4.37794370
 C            0.96239175        1.22577652       -4.46761782
 C           -0.28313262        1.88469643       -4.11628036
 C           -1.37252633        1.11247548       -3.70601940
 C           -0.16097878       -0.92788592       -4.39626171
 C           -1.38723619       -0.25698999       -3.98151555
