   70
C70 / DATE: 7/ 1/2024 / Origin: Program Fullerene / C70 from database
 C            1.62652404        0.01748983        4.47883827
 C            0.78862711       -1.16017298        4.38871752
 C            1.33318246       -2.02006079        3.35293929
 C            2.61591784       -0.06569494        3.41807088
 C            2.38664589       -1.28498123        2.67564393
 C            2.57572683        1.17951909        2.69293929
 C            0.78765598        1.17162714        4.20434203
 C            1.44145956        1.94299202        3.17511874
 C           -0.58631939       -0.71885331        4.25704910
 C           -0.55657209        0.70269705        3.94693249
 C           -1.45425946       -1.53303548        3.54926693
 C            0.45064154       -2.75443170        2.57430298
 C           -0.91497150       -2.69709634        2.86323759
 C            0.83904691       -3.09976315        1.28424456
 C            2.37385953       -1.23581324        1.28247001
 C            1.70653558       -2.24455585        0.58758868
 C            2.77497226        1.16647527        1.32046233
 C            2.71015187       -0.04796355        0.61626352
 C            2.44794137        2.33208858        0.64045174
 C            0.66888242        2.57812695        2.21414912
 C            1.34469213        3.06463753        1.10246905
 C           -1.22689786        1.16972673        2.81587451
 C           -0.68337450        2.22830651        2.06523062
 C           -2.41334538       -0.92373502        2.64561713
 C           -2.29031307        0.42038253        2.30403591
 C           -1.87459840       -3.06017802        1.83107114
 C           -2.70768746       -1.89081742        1.59688464
 C            0.00279753       -3.95440943        0.57809260
 C           -1.42989723       -3.78903380        0.74168890
 C            0.25117146       -4.18492519       -0.82788105
 C            1.71498555       -2.23183329       -0.80916799
 C            1.18279402       -3.31216978       -1.50726753
 C            2.67177527       -0.01509309       -0.78616906
 C            2.03999131       -1.05069258       -1.48582868
 C            2.85236724        2.42225900       -0.68172409
 C            2.93471765        1.19040110       -1.44136048
 C            2.30938426        3.45779773       -1.53715213
 C            0.63521932        3.89047584        0.24525053
 C            1.16356029        4.20229211       -1.06722003
 C           -1.40510964        2.75453901        0.98209116
 C           -0.79059509        3.66673233        0.12273725
 C           -2.95646731        0.86170450        1.17021122
 C           -2.53683077        2.08825289        0.52572093
 C           -2.92052391       -1.42987558        0.29686472
 C           -3.29356731       -0.10201543        0.13156362
 C           -1.94415345       -3.45031668       -0.56904489
 C           -1.02856343       -4.06160384       -1.50968453
 C           -2.41944014       -2.15482352       -0.79181673
 C            0.63935348       -3.09318230       -2.82790572
 C           -0.78386371       -3.39682502       -2.76421769
 C            1.55963685       -0.82196400       -2.78688651
 C            0.76202371       -1.77536988       -3.40974096
 C            2.33367719        1.43865833       -2.73849761
 C            1.95667394        2.84266325       -2.80340998
 C            1.47654073        0.48366818       -3.26132861
 C            0.08766451        4.02982129       -2.02895475
 C           -1.10176221        3.62247206       -1.29960389
 C            0.57732560        3.18731300       -3.10255181
 C           -2.74140816        1.92764009       -0.90608563
 C           -3.10644009        0.53996158       -1.15123615
 C           -1.89076796        2.58458645       -1.78913982
 C           -2.20537337       -1.51903950       -2.02979464
 C           -1.48367723       -2.16025904       -3.04044891
 C           -0.56563702       -1.37730334       -3.83914876
 C           -2.49134857       -0.15690137       -2.18061050
 C            0.30573898        0.89367429       -3.90203273
 C           -0.25445998        2.20037457       -3.60756732
 C           -1.56016349        1.97198741       -2.99927068
 C           -0.81558493       -0.02533522       -3.98383009
 C           -1.89588810        0.56878060       -3.21185297
