   70
C70 / DATE: 7/ 1/2024 / Origin: Program Fullerene / C70 from database
 C            1.19881007       -0.01760156        4.53548895
 C            2.47481805       -0.28497569        3.91437894
 C            2.46113827       -1.66857443        3.47479306
 C            0.38092276       -1.21656654        4.39675472
 C            1.08198797       -2.11842017        3.51533969
 C           -0.94332150       -0.78350959        4.02182472
 C            0.40298056        1.08714358        4.03910411
 C           -0.97074740        0.65911195        4.19504952
 C            0.77294775        1.73251526        2.85713823
 C            2.87359068        0.51925935        2.77915141
 C            2.07088996        1.57234241        2.34288834
 C            3.16249536       -1.73764218        2.20745822
 C            3.45107823       -0.37411003        1.78667870
 C            2.69229266       -2.62800948        1.26213463
 C            0.48271129       -2.53043299        2.32555673
 C            1.31262133       -3.09328930        1.36439254
 C           -1.54947931       -1.32723072        2.89115735
 C           -0.75916410       -1.99561019        1.94076660
 C           -2.75698905       -0.75855828        2.50482249
 C           -1.95689675        1.36282821        3.53107792
 C           -3.04486008        0.59207712        2.96227201
 C           -0.22398661        2.34780670        2.08455008
 C           -1.54841366        2.32309423        2.51599521
 C            0.05948524        2.79089103        0.79326113
 C            2.38903087        2.13181441        1.11208646
 C            1.38570832        2.88485355        0.39164482
 C            3.35534217       -0.02002858        0.43812587
 C            3.10509954        1.31505897        0.14018959
 C            2.91912101       -2.32806904       -0.13153261
 C            3.09156134       -1.00090680       -0.52739547
 C            0.82445783       -3.28379566        0.01550865
 C            1.97947634       -3.15579095       -0.85580398
 C           -1.16433329       -2.04698183        0.59026453
 C           -0.37594401       -2.69394449       -0.36697547
 C           -3.19010436       -0.85176046        1.12569555
 C           -2.34747848       -1.42925378        0.18114634
 C           -3.56252142        1.34029878        1.83834017
 C           -2.61073366        2.39423957        1.52864975
 C           -3.88392431        0.38636354        0.79791486
 C           -0.96760965        2.92427951       -0.15085533
 C           -2.28630638        2.61111743        0.19321760
 C           -0.65006685        3.15773934       -1.48971078
 C            1.71975958        2.80064472       -1.01723080
 C            2.63318638        1.68207786       -1.18034212
 C            0.71740489        2.98527969       -1.95029552
 C            2.71018196       -0.63753867       -1.82656838
 C            2.33780001        0.68557406       -2.10422769
 C            1.75795418       -2.86162473       -2.18287301
 C            2.36628026       -1.65655369       -2.71555720
 C           -0.61330317       -2.48120952       -1.73062709
 C            0.38821223       -2.82989939       -2.64330676
 C           -2.55095677       -1.14855499       -1.17194912
 C           -1.69287955       -1.68435059       -2.13348139
 C           -3.83021223        0.83326302       -0.50852882
 C           -3.14104252        2.08669754       -0.77864116
 C           -3.38631115       -0.08931584       -1.52891470
 C           -1.53054378        2.65792572       -2.53348799
 C           -2.72499582        2.05142658       -2.17197451
 C           -3.04420089        0.72331446       -2.67982641
 C            0.67987097        2.12594806       -3.11903145
 C            1.47769558        0.98272370       -3.17072037
 C           -0.70240888        2.05645215       -3.56781673
 C            1.63516096       -1.33928549       -3.92549415
 C            0.44963881       -2.18759193       -3.93882063
 C            1.19343489        0.02054944       -4.13362253
 C           -1.77026368       -1.19618445       -3.44328956
 C           -2.25271399        0.15372035       -3.66204205
 C           -1.14260045        0.91152777       -4.22120546
 C           -0.66615717       -1.37862758       -4.35981846
 C           -0.15367736       -0.05416047       -4.67285178
