   70
C70 / DATE: 7/ 1/2024 / Origin: Program Fullerene / C70 from database
 C            1.26893393       -0.10727259        4.09367335
 C            2.39899927       -0.27834776        3.19617492
 C            2.36644460       -1.65077735        2.71536926
 C            0.40849119       -1.26978984        3.95127217
 C            1.07132985       -2.20478963        3.07616223
 C           -0.90823350       -0.80683892        3.58328826
 C            0.44215586        1.07641559        3.96440825
 C           -0.92237526        0.64250868        3.71365568
 C            0.93947814        2.15925284        3.26324376
 C            2.74263608        0.74706243        2.32011256
 C            2.13119984        1.99652597        2.43843271
 C            3.40403342        0.42995305        1.13727616
 C            2.89501508       -1.96241316        1.46303225
 C            3.51957499       -0.96123879        0.72188453
 C            2.39932107       -3.08729182        0.80457327
 C            0.34279871       -2.85189395        2.08972914
 C            1.09081292       -3.59612471        1.18885705
 C           -1.56757984       -1.39021958        2.50421138
 C           -0.89716329       -2.31918003        1.68649365
 C           -2.68635725       -0.72243975        2.01279262
 C           -1.74860105        1.37928055        2.86603194
 C           -2.80754244        0.70747621        2.25741775
 C            0.01534750        3.00888889        2.53734039
 C           -1.30631003        2.60271673        2.34422739
 C            1.95435515        2.81511171        1.24881437
 C            0.75197362        3.60460254        1.43301683
 C            3.16667689        1.23537105       -0.05175495
 C            2.24022412        2.26551818        0.00342356
 C            3.47017426       -0.99289801       -0.73331582
 C            3.19122322        0.35693917       -1.20091668
 C            2.49948224       -3.18703842       -0.64325544
 C            2.88129102       -2.07200579       -1.38702010
 C            0.45380367       -4.13472777        0.01205392
 C            1.38539935       -4.00310504       -1.09449886
 C           -1.40606437       -2.60352142        0.40669789
 C           -0.80603076       -3.56248313       -0.39773567
 C           -3.13684870       -0.97532699        0.65933737
 C           -2.34597732       -1.75601054       -0.16942772
 C           -3.50157988        1.29889974        1.12756928
 C           -3.73480549        0.24627993        0.15070104
 C           -2.07043337        3.26861143        1.38613086
 C           -3.14952802        2.57263005        0.70647327
 C            0.05330759        4.03116985        0.31673554
 C           -1.39340589        4.09656699        0.40172255
 C            1.35312727        2.45517676       -1.06081671
 C            0.39762748        3.46785433       -0.98063095
 C            2.27300656        0.53560908       -2.22556233
 C            1.25981102        1.49662139       -2.08080234
 C            2.35061974       -1.87225569       -2.66435532
 C            2.12502067       -0.51103708       -3.12758265
 C            0.63437786       -3.57365333       -2.25458096
 C           -0.73848060       -3.32283411       -1.82750600
 C            1.23700804       -2.68848246       -3.13342098
 C           -2.34456315       -1.54452474       -1.55347586
 C           -1.44311593       -2.24450606       -2.36264301
 C           -3.64503448        0.52599530       -1.20404295
 C           -3.01146033       -0.44131315       -2.08690677
 C           -3.05129790        2.86712796       -0.71637841
 C           -1.93051244        3.76992503       -0.90543211
 C           -0.82580064        3.34644600       -1.75018627
 C           -3.24325041        1.85355098       -1.64582811
 C            0.12660966        1.47788715       -2.91239094
 C           -2.38741191        0.30342928       -3.16535058
 C           -0.99020990        2.23640359       -2.56617686
 C           -2.26095592        1.67434505       -2.70269667
 C            0.99537644       -0.52753290       -4.02535149
 C            0.38668375       -1.84655928       -3.95026187
 C           -0.99476921       -1.65988128       -3.54841404
 C           -0.05332328        0.44735125       -3.82958073
 C           -1.31472955       -0.27118967       -3.82403703
