   70
C70 / DATE: 7/ 1/2024 / Origin: Program Fullerene / C70 from database
 C            1.23505125       -0.06900246        5.74129773
 C            0.39569336       -1.24302879        5.60183676
 C            1.10113743       -2.18277656        4.75288426
 C            2.42344499       -0.26967348        4.92434613
 C            2.25214077       -1.50200092        4.18375861
 C            2.63827970        0.94650258        4.18435203
 C            0.51416281        1.05437338        5.17107548
 C            1.46883238        1.79761477        4.38446503
 C           -0.80606401       -0.85183619        4.88369127
 C           -0.67151699        0.54025143        4.50486798
 C            0.12887886       -2.73203561        3.83379768
 C           -1.01264089       -1.82445851        3.82907583
 C            0.59909641       -3.16622455        2.60674458
 C            2.41629388       -1.52895298        2.79235196
 C            1.85000029       -2.60218443        2.11215033
 C            2.85797617        0.86097159        2.75245744
 C            2.73504559       -0.35780303        2.07921005
 C            1.06219394        2.25300639        3.07337385
 C            2.18243414        2.00792034        2.19403492
 C           -0.92194967        0.89234737        3.17619274
 C           -0.20703899        1.94087540        2.58616531
 C           -1.49700749       -1.38563043        2.59814395
 C           -1.59927088       -0.01171080        2.34925025
 C           -0.31400810       -3.14068913        1.48712393
 C           -1.38214364       -2.24725741        1.51122880
 C            1.77222339       -2.57954128        0.66357155
 C            0.50865890       -3.18606506        0.29609326
 C            2.55631906       -0.30571360        0.68272229
 C            2.17835899       -1.44992707       -0.03029521
 C            1.90365861        1.99145142        0.84522638
 C            2.40850401        0.95051867        0.07658821
 C           -0.42846899        2.20647603        1.23535838
 C            0.68333186        2.51406198        0.45242614
 C           -1.99637734        0.40766586        1.07723980
 C           -1.53061659        1.63232746        0.60347038
 C           -1.91470940       -1.85614013        0.28924944
 C           -2.40258468       -0.55457166        0.15379043
 C           -0.08069531       -2.78981394       -0.89028954
 C           -1.43626837       -2.50004404       -0.84735491
 C            1.75905776       -1.31424713       -1.35651384
 C            0.69413402       -2.10150385       -1.82073466
 C            2.17279218        1.03361312       -1.29626479
 C            2.08032666       -0.14474859       -2.03375751
 C            0.49728151        2.68455990       -0.90600237
 C            1.47050034        2.15388126       -1.74694580
 C           -1.76688328        1.97470347       -0.72971432
 C           -0.80491520        2.75339425       -1.37547057
 C           -2.85170365       -0.14505280       -1.10395364
 C           -2.62414187        1.18039629       -1.49532706
 C           -2.07132917       -2.24494457       -2.04551620
 C           -2.99679257       -1.13566932       -2.07584273
 C            0.11112393       -1.81858774       -3.06071749
 C           -1.24506421       -2.10642601       -3.22934480
 C            1.78632029       -0.06392325       -3.39217315
 C            0.74413750       -0.92472766       -3.92309796
 C            1.34667673        2.36544705       -3.11346521
 C            1.62347234        1.24914168       -3.99335389
 C           -0.99232950        3.12832349       -2.69968184
 C            0.14555700        3.02794237       -3.59904303
 C           -2.95669294        1.60159454       -2.78625211
 C           -2.16105388        2.64583457       -3.40558390
 C           -3.16070550       -0.77896860       -3.47013312
 C           -2.03830272       -1.36480112       -4.19416621
 C           -3.23274576        0.61946537       -3.81776292
 C           -0.03029800       -0.15340016       -4.89124832
 C            0.55454392        1.17438903       -4.97553193
 C           -0.29108410        2.34308543       -4.80265367
 C           -1.72903368        2.16928490       -4.71303099
 C           -1.41127238       -0.31329505       -4.96591172
 C           -2.29193124        0.84595651       -4.90247777
