   70
C70 / DATE: 7/ 1/2024 / Origin: Program Fullerene / C70 from database
 C            1.51960144       -0.21525421        5.20737372
 C            0.66072966       -1.38494776        5.20745702
 C            1.23067494       -2.35669108        4.28936806
 C            2.61736921       -0.46817257        4.28924292
 C            2.49145522       -1.82911063        3.80163665
 C            2.65281369        0.61799726        3.32038773
 C            0.75313948        0.89561048        4.67231619
 C            1.53150320        1.49491767        3.61078060
 C           -0.62870998       -0.98630984        4.67246350
 C           -0.57783100        0.42459505        4.34420194
 C            0.20488195       -2.71578964        3.32061587
 C           -0.96755515       -1.90850598        3.61104449
 C            0.56889624       -2.90916864        1.98335130
 C            2.83074608       -2.07833164        2.48305506
 C            1.91867851       -2.85341576        1.65489082
 C            2.94627673        0.32847853        1.98312508
 C            3.29715224       -0.97612026        1.65475508
 C            2.45196385        1.17764549        0.97965141
 C            0.85923340        2.03470490        2.53135261
 C            1.57949839        2.19965661        1.36179536
 C           -1.13835795        0.83608519        3.13640909
 C           -0.52610329        1.86781531        2.42777330
 C           -1.68397419       -1.42879583        2.53163338
 C           -1.93951820       -0.05705070        2.42793794
 C           -0.38937841       -2.69183870        0.97993846
 C           -1.62574044       -2.16548499        1.36212989
 C           -0.00790037       -2.66303649       -0.37696275
 C            2.29683149       -2.58975121        0.28738436
 C            3.15867219       -1.41600707        0.28730107
 C            1.35043881       -2.69057481       -0.72057083
 C            2.53858130        0.80489328       -0.37723159
 C            2.97143974       -0.48295574       -0.72073426
 C            1.98933143        1.64319675       -1.36447559
 C            1.02058537        3.02006428        0.40417239
 C            1.38510790        2.83584300       -0.97974841
 C           -1.15588943        2.35264322        1.27950243
 C           -0.41713986        3.19953852        0.45226706
 C           -2.59073501        0.39857254        1.27965704
 C           -2.24107982        1.64561502        0.74564960
 C           -2.57593000       -1.87796198        0.40454561
 C           -3.17764442       -0.55993422        0.45255244
 C           -0.97228320       -2.39014565       -1.36416073
 C           -2.29110779       -2.17073767       -0.97936485
 C           -0.58847639       -2.09321655       -2.67916392
 C            1.73903652       -2.17972184       -1.94977257
 C            2.60026725       -1.00680628       -1.94985609
 C            0.75976817       -2.00275972       -2.99496397
 C            1.82081621        1.18794520       -2.67941936
 C            2.13814814       -0.12556135       -2.99510579
 C            1.22987211       -0.90335798       -3.82270796
 C            1.03275976        1.91502081       -3.57407220
 C            0.29590817        3.38054461       -1.77065872
 C           -0.86568894        3.48421077       -0.89753190
 C            0.13956515        2.94407320       -3.07503186
 C           -2.81138839        2.06428495       -0.45946699
 C           -2.09217715        2.99286223       -1.31669873
 C           -3.58365667       -0.21733627       -0.89725007
 C           -3.13701626       -1.29469589       -1.77030232
 C           -3.48209760        1.09995893       -1.31655470
 C           -1.51822078       -1.55911927       -3.57380362
 C           -2.76747792       -1.01497793       -3.07473441
 C            0.32593338       -0.23968766       -4.63813547
 C            0.33128851        1.21284232       -4.63879659
 C           -1.05836376       -0.67970432       -4.63865068
 C           -1.19209589        2.65319911       -3.58233208
 C           -2.26290684        2.56545966       -2.69650226
 C           -3.12552204        1.39067955       -2.69641348
 C           -2.88870223        0.34263352       -3.58216201
 C           -1.04989547        1.67031552       -4.64223303
 C           -1.90840101        0.50113466       -4.64214968
