   70
C70 / DATE: 7/ 1/2024 / Origin: Program Fullerene / C70 from database
 C            1.26841621        0.04222031        4.34323851
 C            2.55724185       -0.17681345        3.72658083
 C            2.60155173       -1.55652630        3.28088760
 C            0.45735969       -1.14595344        4.12907498
 C            1.26287428       -2.11021563        3.40660966
 C           -0.80510184       -0.72707248        3.54910182
 C            0.49224485        1.18139915        3.90717283
 C           -0.84505453        0.72183566        3.57285274
 C            1.07122036        2.13592678        3.08148866
 C            2.93781198        0.66260556        2.60480625
 C            2.16667699        1.77290634        2.27842057
 C            3.23963177       -1.58224124        1.97704344
 C            3.38839331       -0.20418964        1.52965038
 C            2.81440405       -2.53474947        1.06516901
 C            0.70982020       -2.76297483        2.30919827
 C            1.57448502       -3.24710917        1.32936194
 C           -1.27489480       -1.38513204        2.42439005
 C           -0.63285495       -2.54423859        1.98433594
 C           -2.15679742       -0.72136310        1.57417979
 C           -1.54264496        1.40607792        2.57710719
 C           -2.22038349        0.67944463        1.58671798
 C            0.21016745        3.12059196        2.61686732
 C           -1.15778702        2.72413333        2.31054555
 C            0.66435790        4.00637495        1.56594177
 C            2.26962361        2.28308526        0.98342791
 C            1.75012972        3.54736657        0.73005867
 C            3.07272113        0.13058086        0.21129671
 C            2.59255481        1.41769274       -0.07523486
 C            2.81715400       -2.20443856       -0.34593471
 C            2.98116746       -0.88252205       -0.74900482
 C            1.04100306       -3.68670543        0.05167633
 C            1.79753124       -3.01767176       -0.99336816
 C           -1.19686018       -3.25946003        0.93402075
 C           -0.32838960       -3.81735493       -0.09148272
 C           -2.81346032       -1.44268981        0.57585693
 C           -2.37634102       -2.72982334        0.26892988
 C           -3.62286612       -0.76679874       -0.33039806
 C           -2.70398595        1.35317540        0.46301674
 C           -3.47495573        0.66855983       -0.46385575
 C           -1.51170202        3.32969434        1.03900608
 C           -0.46907459        4.27724725        0.69907384
 C           -2.06954094        2.52239290        0.05585319
 C            1.42836217        3.92630559       -0.62626279
 C            0.02273740        4.30433204       -0.65857106
 C            2.34016606        1.78916050       -1.40545349
 C            1.64265857        2.96024444       -1.67811952
 C            2.63853540       -0.55970916       -2.05360617
 C            2.31397148        0.81059543       -2.38962516
 C            1.14059968       -2.50776929       -2.11214043
 C            1.72054727       -1.42845107       -2.77720483
 C           -0.93007829       -3.52535217       -1.37880112
 C           -2.31206132       -3.15879215       -1.12017128
 C           -0.20186951       -2.83123006       -2.34572667
 C           -3.81303639       -1.31160150       -1.66633161
 C           -3.01491043       -2.45007878       -2.08341210
 C           -3.24182543        0.94910737       -1.86518834
 C           -3.59443867       -0.23493138       -2.61966253
 C           -1.70703758        2.66973528       -1.29258952
 C           -0.62613470        3.46673982       -1.64739033
 C            0.41432279        2.87045280       -2.45286214
 C           -2.11263756        1.69189806       -2.19909928
 C            1.19160308        0.78983299       -3.31572448
 C            0.91984544       -0.59637684       -3.65841908
 C            0.13646695        1.67816270       -3.11192746
 C           -1.17624603        1.19097306       -3.12275282
 C           -0.88899167       -2.21466062       -3.39069869
 C           -2.33681343       -2.08755271       -3.31610751
 C           -2.67604564       -0.70714990       -3.62812935
 C           -0.37934226       -0.97540170       -3.94920289
 C           -1.43419458        0.01424951       -3.82850039
