   70
C70 / DATE: 7/ 1/2024 / Origin: Program Fullerene / C70 from database
 C            1.06420551       -0.16198783        4.60411981
 C            2.33607836       -0.43342275        3.97142947
 C            2.23138872       -1.71760630        3.29735877
 C            0.22021029       -1.32912958        4.40397581
 C            0.85465563       -2.15859202        3.39686708
 C           -1.12275388       -0.85677313        4.16261702
 C            0.30975455        1.00111711        4.17221871
 C           -1.08136788        0.59769884        4.09927095
 C            0.81946085        1.81945687        3.16493997
 C            2.84314807        0.52214685        3.00816377
 C            2.17203796        1.72061429        2.80046904
 C            2.81052348       -1.57157165        1.97575018
 C            3.29887048       -0.21119012        1.84005498
 C            2.16184109       -2.13450494        0.89249349
 C            0.17392993       -2.47307690        2.21987697
 C            0.91670666       -2.74698124        1.06939960
 C           -1.81333254       -1.31629818        2.97640758
 C           -1.19319038       -2.20206750        2.09351210
 C           -1.86564934        1.00931167        2.94674855
 C           -2.50808709       -0.17435088        2.41771618
 C           -0.08037802        2.48821384        2.32535652
 C           -1.32373208        1.91900772        2.04968216
 C            0.38681938        3.50178025        1.50213178
 C            2.63670814        2.50018355        1.74972321
 C            1.81193704        3.58754565        1.27250893
 C            3.22985262        0.42247569        0.59452237
 C            3.18454647        1.81363600        0.58601398
 C            2.49266037       -1.65795479       -0.36628422
 C            2.74697173       -0.29124265       -0.51276254
 C            2.07057876       -2.39973911       -1.45608898
 C            0.26612237       -3.25306442       -0.05556960
 C            1.01729240       -3.36760317       -1.22659436
 C           -1.78659555       -2.37197488        0.84296129
 C           -1.12596904       -3.12891927       -0.12704135
 C           -2.81192393       -0.22051645        1.06804663
 C           -2.77281930       -1.46080352        0.45065328
 C           -1.82926244        1.96725492        0.74776639
 C           -2.64021025        0.91980646        0.27796313
 C           -0.27914490        3.74253041        0.23295714
 C           -1.39274548        2.97526662       -0.11690346
 C            2.02658366        3.70343491       -0.15664663
 C            2.72776754        2.51142988       -0.59859044
 C            0.75035870        4.00747622       -0.76715986
 C            2.22975788        0.38968921       -1.62825889
 C            2.20213094        1.78696117       -1.66221708
 C            1.74674612       -1.70875922       -2.68546420
 C            1.59375902       -0.33008308       -2.64329368
 C            0.36558634       -3.59815139       -2.49831986
 C            0.75623756       -2.51050401       -3.38467857
 C           -1.80950609       -3.45972024       -1.29791377
 C           -1.07461867       -3.69798113       -2.52589731
 C           -3.34341929       -1.56419158       -0.80425766
 C           -2.97907083       -2.68172556       -1.65378926
 C           -3.01190977        0.86013141       -1.07368229
 C           -3.39719776       -0.36722790       -1.62395642
 C           -1.79722424        2.96361234       -1.44682401
 C           -2.56318666        1.84242511       -1.95187170
 C            0.53597089        3.56081973       -2.06027918
 C            1.32879354        2.43324508       -2.54017607
 C           -0.83196082        3.32533130       -2.46922521
 C            0.54751567        0.26042707       -3.35221438
 C           -1.96918163        1.42749132       -3.21705308
 C            0.48776936        1.64406897       -3.42458692
 C           -0.81697883        2.26653354       -3.45953505
 C           -0.45667828       -1.86535403       -3.84931625
 C           -1.55911966       -2.74980631       -3.51627911
 C           -2.77829998       -2.16840302       -2.99938739
 C           -2.87764000       -0.72486974       -2.93242480
 C           -0.59364045       -0.49059024       -3.66135335
 C           -1.86848305        0.06561476       -3.46777988
