   70
C70 / DATE: 7/ 1/2024 / Origin: Program Fullerene / C70 from database
 C            1.32564311       -0.12755737        4.27909954
 C            2.59106738       -0.38237824        3.63312100
 C            2.52950638       -1.70808641        3.04259952
 C            0.46992824       -1.28606922        4.05841067
 C            1.16660705       -2.18727051        3.16878711
 C           -0.83301811       -0.79593333        3.66340608
 C            0.56989371        1.04642703        3.88823533
 C           -0.82243639        0.64177962        3.86601005
 C            1.04553711        1.88924643        2.87943137
 C            3.03709425        0.53182319        2.60408476
 C            2.34262874        1.71223563        2.35859362
 C            3.10598045       -1.63198194        1.71049135
 C            3.48934278       -0.25279351        1.46592403
 C            2.49525424       -2.33188360        0.68249128
 C            0.53020942       -2.63980413        2.02010981
 C            1.32661610       -3.04520496        0.95641648
 C           -1.44361888       -1.30794723        2.52063791
 C           -0.81185815       -2.31792119        1.77599830
 C           -2.50966895       -0.59768165        1.96727905
 C           -1.72061331        1.41192313        3.15011258
 C           -2.68083803        0.74627606        2.28753244
 C            0.13846935        2.76236969        2.25873915
 C           -1.23034850        2.57376554        2.42867281
 C            0.55759084        3.61205153        1.24350776
 C            2.73059983        2.41908111        1.22781380
 C            1.91250112        3.51058860        0.75370992
 C            3.34406885        0.28379784        0.18398239
 C            3.19588461        1.66782808        0.07012168
 C            2.73087932       -1.91123586       -0.62044149
 C            2.91087997       -0.54400520       -0.86401504
 C            2.35619575       -2.76035353       -1.65516566
 C            0.73055900       -3.76801888       -0.06361981
 C            1.36930291       -3.78397974       -1.36776513
 C           -1.43427107       -2.83099309        0.62793419
 C           -0.69826291       -3.61185107       -0.26552798
 C           -3.16241201       -1.09917547        0.85253697
 C           -2.61535077       -2.25445526        0.16997565
 C           -3.66575828       -0.17468584       -0.15374057
 C           -3.05150648        1.68311478        1.24020899
 C           -2.12599198        2.80656366        1.30452107
 C           -3.45054748        1.19693204        0.00026427
 C           -0.31138106        3.82730836        0.09588381
 C           -1.62576974        3.35705007        0.12466013
 C            1.85999724        3.42908040       -0.69670899
 C            2.53515796        2.21833967       -1.09843855
 C            0.48635109        3.60946073       -1.10195483
 C            2.35663737        0.03632712       -2.01301041
 C            1.90140041        1.34523223       -1.96646098
 C            2.03601972       -2.19765635       -2.94922343
 C            1.95048964       -0.75717816       -3.07103676
 C            0.32826904       -3.69943802       -2.37712114
 C           -0.92601662       -3.45100192       -1.69516241
 C            0.76417242       -2.75846781       -3.38035424
 C           -2.79949530       -2.05785263       -1.26073232
 C           -3.51030495       -0.80905876       -1.45619092
 C           -1.77819948       -2.43603652       -2.12910280
 C           -3.22291896       -0.03809496       -2.56713471
 C           -3.26456252        2.00261529       -1.11837592
 C           -2.24505521        3.04008764       -1.08425509
 C           -3.23991186        1.40677756       -2.44272213
 C           -0.04202532        2.81393920       -2.11018869
 C            0.66092369        1.67173782       -2.54084156
 C           -1.41963336        2.87175174       -2.26930499
 C           -2.07818095        1.93052319       -3.14320662
 C            0.69479988       -0.44008096       -3.72106451
 C           -0.10856524       -1.65236611       -3.70960724
 C           -1.40035528       -1.58832964       -3.18720830
 C           -2.09166027       -0.39791967       -3.40314617
 C            0.06054257        0.76846952       -3.43806132
 C           -1.31646411        0.81024425       -3.64041412
