   70
C70 / DATE: 7/ 1/2024 / Origin: Program Fullerene / C70 from database
 C            1.58674895       -0.26177706        4.91971318
 C            0.73610761       -1.43432502        4.91841300
 C            1.22410837       -2.33232760        3.88587734
 C            2.59294817       -0.44547231        3.88796229
 C            2.30426661       -1.67520758        3.18047017
 C            2.63897741        0.77446845        3.11662191
 C            0.77296096        0.87536106        4.52473449
 C            1.50722652        1.59361291        3.50764280
 C           -0.59702185       -1.01305269        4.52263345
 C           -0.54926020        0.39383032        4.18436175
 C            0.07950391       -2.75358831        3.11272387
 C           -1.05083717       -1.93249086        3.50372586
 C            0.23860740       -2.97429653        1.75317979
 C            2.26340389       -1.64402673        1.78686882
 C            1.38766277       -2.49264536        1.10701482
 C            2.89960069        0.69369877        1.75723025
 C            2.79901085       -0.54715428        1.10916061
 C            2.64703911        1.83738190        1.00975987
 C            0.80172152        2.20583465        2.47978839
 C            1.53927252        2.61195795        1.37105067
 C           -1.10895842        0.80124191        2.97570253
 C           -0.55092253        1.88338749        2.29091736
 C           -1.85065546       -1.45031245        2.47570515
 C           -1.96362211       -0.06412598        2.28866073
 C           -0.92619851       -3.08803630        1.00430779
 C           -2.00669863       -2.27589651        1.36564110
 C           -0.79173706       -3.53763341       -0.29959554
 C            1.43233091       -2.53768350       -0.29002035
 C            0.49758909       -3.34843678       -0.93305573
 C            2.85720543       -0.57363241       -0.28784989
 C            2.07270938       -1.50259657       -0.99604642
 C            3.11755128        1.85097001       -0.29362990
 C            3.33851867        0.56750162       -0.92872708
 C            2.52519040        2.74090073       -1.27513928
 C            0.89166757        3.39365066        0.42549856
 C            1.38443587        3.45036102       -0.93968523
 C           -1.20425806        2.36979964        1.15558726
 C           -0.55539677        3.32981154        0.37880612
 C           -2.62763946        0.40765102        1.15337077
 C           -2.27605690        1.65055536        0.61365949
 C           -2.94976075       -1.90146152        0.41962664
 C           -3.33809559       -0.50597081        0.37454312
 C           -1.82052365       -3.24928424       -1.28176663
 C           -2.84932492       -2.38551863       -0.94615458
 C            0.26874963       -3.20123429       -2.34990239
 C           -1.16703993       -3.10095732       -2.56613767
 C            1.88200487       -1.36271210       -2.38801507
 C            0.89680840       -2.09825723       -3.03128481
 C            3.12903430        0.74141161       -2.34554268
 C            2.58834015        2.07550225       -2.56040629
 C            2.27614953       -0.19695451       -3.02918340
 C            1.37584728        1.94306100       -3.34789099
 C            1.27918633        0.55679263       -3.77525686
 C            0.23081127        3.43385934       -1.82976764
 C           -0.96013272        3.55167797       -0.99668396
 C            0.21964461        2.61366084       -2.96312747
 C           -2.86355093        2.07808508       -0.58043188
 C           -2.15646086        3.01543959       -1.43824569
 C           -3.67320493       -0.18808386       -1.00083026
 C           -3.19073960       -1.28245052       -1.83500751
 C           -3.53426524        1.11623390       -1.44035743
 C           -1.41660738       -1.90609684       -3.35216743
 C           -0.12833934       -1.38336836       -3.77741042
 C            0.02277185       -0.01211939       -3.98613248
 C           -2.41332042       -1.01565383       -2.96717175
 C           -0.99399546        2.17777043       -3.48330860
 C           -2.22816302        2.51607063       -2.79691827
 C           -3.08038155        1.34135400       -2.79822253
 C           -1.10749280        0.80784303       -3.96445209
 C           -2.37505188        0.27410236       -3.48543373
