   70
C70 / DATE: 7/ 1/2024 / Origin: Program Fullerene / C70 from database
 C            1.22423266        0.01172307        4.35595039
 C            2.46438911       -0.30350613        3.68992397
 C            2.42530902       -1.71431826        3.34654380
 C            0.38990746       -1.18362754        4.32379874
 C            1.04493432       -2.14457108        3.46978043
 C           -0.94513673       -0.75692518        3.98038050
 C            0.41477101        1.09747758        3.84105194
 C           -0.95243172        0.69253367        4.08473191
 C            0.72814692        1.68477115        2.61263797
 C            2.80322368        0.41731292        2.48258784
 C            1.94495363        1.39529804        1.97371955
 C            3.07806276       -1.87257355        2.06033618
 C            3.38095260       -0.54196742        1.55891129
 C            2.55386202       -2.80067598        1.17895962
 C            0.39349846       -2.61800898        2.33229046
 C            1.17818247       -3.24465006        1.37104884
 C           -1.60133384       -1.34930833        2.90329668
 C           -0.86333488       -2.09982166        1.97193587
 C           -2.81174961       -0.77935073        2.52510235
 C           -1.96291801        1.37731946        3.43811451
 C           -3.07162364        0.59447251        2.92646223
 C           -0.28534993        2.35036333        1.90981342
 C           -1.59499258        2.32328305        2.39443288
 C           -0.05272169        2.79659912        0.60648120
 C            2.12971984        1.79175183        0.64997370
 C            1.23544178        2.69481024        0.08017260
 C            3.26780595       -0.27234169        0.19986351
 C            2.96953485        1.03070465       -0.17178336
 C            2.73409538       -2.58574789       -0.24248486
 C            3.02731261       -1.30732906       -0.71420433
 C            0.62695318       -3.52654232        0.06521516
 C            1.70464083       -3.36059885       -0.90112867
 C           -1.34857389       -2.27610887        0.66041806
 C           -0.64865585       -3.07654260       -0.25112398
 C           -3.29157548       -0.93556703        1.16731259
 C           -2.52112052       -1.63075773        0.24466259
 C           -3.61284261        1.30007331        1.78424853
 C           -2.69439217        2.37501620        1.44851844
 C           -3.92062332        0.31601908        0.76696965
 C           -1.14092557        3.07195392       -0.23591646
 C           -2.40767258        2.60782286        0.11048416
 C           -0.91910320        3.42270468       -1.56395206
 C            1.52600807        3.24551419       -1.16351573
 C            0.43463430        3.64045919       -2.02653136
 C            3.11573085        1.36538824       -1.50629007
 C            2.50929414        2.58654589       -1.99786912
 C            2.74573819       -0.99365827       -2.05246216
 C            2.89483374        0.32330031       -2.49000876
 C            1.38406067       -3.05562805       -2.21212044
 C            1.93488239       -1.84666580       -2.80760464
 C           -1.03308239       -3.09002142       -1.58878158
 C           -0.00559839       -3.15072926       -2.61555014
 C           -2.77111979       -1.43872454       -1.11622721
 C           -2.04430420       -2.16253958       -2.04830899
 C           -3.82612933        0.70972753       -0.55778895
 C           -3.18609141        1.98027953       -0.86366456
 C           -3.35274857       -0.24719176       -1.53922453
 C           -1.61586167        2.68178232       -2.60064170
 C           -2.69577456        1.89932027       -2.23131898
 C           -2.71366851        0.49684407       -2.61404864
 C            0.58453899        2.92371049       -3.28518199
 C            1.87767223        2.28281802       -3.27175480
 C            1.94053956        0.84797066       -3.45249691
 C           -0.59784440        2.10127747       -3.45465712
 C            0.91335809       -1.26781193       -3.66979691
 C           -0.26809421       -2.09215344       -3.57617928
 C           -1.51148373       -1.46137846       -3.20805590
 C           -1.61445646       -0.07534800       -3.25258712
 C            0.78377127        0.11583129       -3.70658025
 C           -0.48165757        0.70991130       -3.52628996
