   70
C70 / DATE: 7/ 1/2024 / Origin: Program Fullerene / C70 from database
 C            1.55617985       -0.34654311        5.00896975
 C            0.70346371       -1.51496122        4.94333694
 C            1.20822500       -2.36890400        3.88198192
 C            2.58147238       -0.49089922        3.98872533
 C            2.29183742       -1.67619244        3.21475048
 C            2.65215210        0.76185525        3.28063185
 C            0.75067412        0.80815300        4.64735069
 C            1.51152624        1.57113647        3.69093653
 C           -0.61985843       -1.07176279        4.53970940
 C           -0.55542889        0.34411112        4.23910863
 C            0.07274220       -2.76547584        3.08011109
 C           -1.06265764       -1.95988602        3.48862375
 C            0.24928049       -2.93255849        1.71406822
 C            2.24857199       -1.57076949        1.82498146
 C            1.41001105       -2.42890066        1.10975057
 C            2.96113783        0.75213049        1.92584988
 C            2.76096853       -0.42949281        1.18932460
 C            2.78178830        1.96419431        1.28020811
 C            0.83666020        2.25944305        2.69007275
 C            1.64587580        2.77011350        1.68883266
 C           -1.06648967        0.78139839        3.01761177
 C           -0.46977206        1.86275549        2.35151952
 C           -1.84960558       -1.44340797        2.46921189
 C           -1.93913183       -0.05261976        2.31470924
 C           -0.90437124       -3.01106784        0.94101499
 C           -1.99909090       -2.23437640        1.33486383
 C           -0.75269169       -3.38852610       -0.38504218
 C            1.50298084       -2.45661028       -0.28101070
 C            0.54555999       -3.18039853       -0.99343062
 C            2.74419899       -0.37685207       -0.21455170
 C            2.25246491       -1.47673409       -0.93526131
 C            2.86814708        2.01955356       -0.15683145
 C            2.99008034        0.84172495       -0.86929481
 C            1.04135535        3.31569275        0.50037255
 C            1.91786823        3.01709431       -0.61995571
 C           -1.03886394        2.30732877        1.14639805
 C           -0.32361187        3.19289525        0.32282956
 C           -2.59691879        0.45243421        1.19401159
 C           -2.20194677        1.68391104        0.66729585
 C           -2.94553092       -1.83263533        0.40384982
 C           -3.32459732       -0.43434502        0.39889054
 C           -1.76803668       -3.04811841       -1.36492938
 C           -2.85314262       -2.27816548       -0.97455533
 C            0.33670479       -2.92534171       -2.40791647
 C           -1.09508076       -2.77348539       -2.62502137
 C            2.30424575       -1.48089367       -2.32892714
 C            1.23036203       -2.10713490       -3.08082072
 C            2.83163033        0.93746715       -2.24449021
 C            2.66022528       -0.26510607       -3.02367047
 C            1.36344430        2.88092242       -1.89243880
 C            1.93111891        1.95523647       -2.77115352
 C           -0.81074964        3.52195719       -0.93407441
 C            0.04414131        3.29420774       -2.09228233
 C           -2.83122478        2.16308860       -0.48136450
 C           -2.16069105        3.15568625       -1.28925218
 C           -3.67915557       -0.07581828       -0.96318613
 C           -3.32097438       -1.19406761       -1.82425024
 C           -3.46540042        1.22485968       -1.39145874
 C           -1.56855175       -1.76691528       -3.45958462
 C           -2.70745324       -0.95879005       -3.04986095
 C            0.73615422       -1.13586723       -4.04608978
 C            1.64066228       -0.00446311       -4.02799379
 C            1.10365706        1.32358184       -3.78637701
 C           -0.62881078       -0.89988451       -4.15200200
 C           -0.76618220        2.65037872       -3.11367739
 C           -2.14754297        2.68355670       -2.66511362
 C           -2.93548607        1.46944887       -2.72514833
 C           -2.47024930        0.40675369       -3.48951192
 C           -0.27333018        1.52025914       -3.75825374
 C           -1.13493927        0.46464083       -4.07112024
