   70
C70 / DATE: 7/ 1/2024 / Origin: Program Fullerene / C70 from database
 C            1.15421443       -0.05971123        4.57946761
 C            2.48496549       -0.29801800        4.05728831
 C            2.46184610       -1.57393457        3.35401012
 C            0.35892979       -1.24318758        4.29691629
 C            1.09912223       -2.05897304        3.36054861
 C           -0.96203139       -0.80344802        3.90285462
 C            0.40514923        1.09700676        4.11698060
 C           -0.93412018        0.64698243        3.78722412
 C            1.01818134        2.04160895        3.30559089
 C            3.08070121        0.68096570        3.16657093
 C            2.40236343        1.86459919        2.88456229
 C            3.12108762       -1.38588701        2.07983223
 C            3.70955419       -0.05879270        2.08574885
 C            2.50881973       -1.83905380        0.91481933
 C            0.48626798       -2.38178345        2.15533569
 C            1.23668243       -2.42897769        0.97224253
 C           -1.64007366       -1.51008999        2.91599981
 C           -0.90844468       -2.37170511        2.08669918
 C           -2.77655219       -0.89487764        2.40519985
 C           -1.63406346        1.23093969        2.73178401
 C           -2.76674383        0.55464767        2.29570379
 C            0.27729663        2.60148350        2.18637541
 C           -0.95480511        2.06120516        1.83048753
 C            2.54279802        2.47525258        1.57322534
 C            1.22980846        2.93487381        1.14477127
 C            3.92811812        0.56687204        0.86738726
 C            3.39236027        1.90162160        0.63715922
 C            3.00684435       -1.38809287       -0.30698773
 C            3.72332999       -0.19653583       -0.35310770
 C            2.46867193       -1.88147995       -1.48475800
 C            0.63584227       -2.89599513       -0.20274617
 C            1.26283470       -2.68489325       -1.42723692
 C           -1.51973703       -2.94823811        0.97932195
 C           -0.71986674       -3.21584180       -0.20243529
 C           -3.42647645       -1.43070487        1.22439698
 C           -2.82245905       -2.47439235        0.54019321
 C           -3.36197617        0.90139862        1.02441598
 C           -3.97268921       -0.30493159        0.48587951
 C           -1.38581509        2.15810385        0.50035811
 C           -2.68340102        1.76010832        0.16891403
 C            0.85700203        2.78932060       -0.18752135
 C           -0.48452032        2.54649402       -0.50457355
 C            3.04853175        1.99603504       -0.77016964
 C            3.44283811        0.75368500       -1.41307194
 C            1.84702350        2.58265511       -1.15152900
 C            2.37610465       -1.00971852       -2.64828011
 C            2.73117169        0.33811134       -2.53509957
 C            0.45448179       -2.36394940       -2.59472496
 C            1.19115245       -1.40705724       -3.40007407
 C           -1.52536067       -2.89571058       -1.37268815
 C           -2.84227983       -2.49192212       -0.91440350
 C           -0.92638599       -2.24999732       -2.45263472
 C           -4.14750257       -0.40347699       -0.88683743
 C           -3.52934470       -1.50821398       -1.61036357
 C           -3.12599433        1.85962869       -1.14467081
 C           -3.96168065        0.79710020       -1.68058511
 C           -0.88978294        2.59117388       -1.84249296
 C           -2.19679623        2.25229978       -2.18391721
 C            1.47146381        2.43763238       -2.47891226
 C            1.99819811        1.30229642       -3.22314460
 C            0.07796385        2.59067112       -2.84224782
 C            0.49502448       -0.46692542       -4.14051605
 C            0.98987313        0.89409477       -4.18219984
 C           -0.14460064        1.78818856       -4.03138185
 C           -1.63321102       -1.27872964       -3.17553280
 C           -2.95157661       -0.97450239       -2.83156965
 C           -3.40498283        0.39814970       -2.95795987
 C           -2.43864922        1.40292245       -3.34737303
 C           -0.95353005       -0.41035970       -4.03575615
 C           -1.35116541        0.99197995       -4.10076211
