   70
C70 / DATE: 7/ 1/2024 / Origin: Program Fullerene / C70 from database
 C            1.30556386       -0.06130369        4.02316123
 C            2.54256688       -0.25841697        3.28763190
 C            2.56220131       -1.64823133        2.85049547
 C            0.46856661       -1.23015725        3.80329439
 C            1.20607221       -2.15224101        2.96116223
 C           -0.83208851       -0.77206729        3.35107668
 C            0.50663584        1.11747603        3.75266364
 C           -0.82391657        0.67859763        3.36899577
 C            1.08501903        2.17378908        3.07149087
 C            3.00884297        0.74710464        2.43753447
 C            2.37557947        1.99001586        2.41812381
 C            3.84412531        0.41097821        1.37404840
 C            3.31905243       -2.00175937        1.74506800
 C            4.13876372       -0.98608671        1.11329305
 C            2.70308358       -2.79044187        0.68897336
 C            0.57567798       -2.67216076        1.83587603
 C            1.33620958       -3.07110248        0.73111013
 C           -1.43780006       -1.41663431        2.27671402
 C           -0.80572985       -2.52173715        1.70512510
 C           -2.41264046       -0.73285874        1.54488039
 C           -1.51560788        1.34806668        2.36555213
 C           -2.51191979        0.65969234        1.68209521
 C            0.25840422        2.98259875        2.19291211
 C           -1.01170112        2.53873392        1.82620473
 C            2.34339358        2.74226489        1.17426966
 C            1.13020024        3.54295820        1.17775229
 C            3.65902155        1.07220298        0.08980057
 C            2.75463856        2.11955235       -0.00150860
 C            4.08280490       -1.19280920       -0.32369880
 C            3.30330535       -2.38884311       -0.57268674
 C            3.65944259        0.05228252       -0.94107916
 C            2.52117267       -2.43261261       -1.71479325
 C            0.68840915       -3.46491704       -0.44237347
 C            1.27414048       -3.17264084       -1.67524915
 C           -1.45865279       -3.22015012        0.70259321
 C           -0.67243066       -3.75158855       -0.39608305
 C           -3.11363975       -1.40952115        0.53731697
 C           -2.69122797       -2.68044796        0.15526011
 C           -3.92879331       -0.70127894       -0.34392360
 C           -3.36743255        1.39085973        0.87345566
 C           -4.16256291        0.70933630       -0.12150637
 C           -1.62939426        3.10677544        0.70441184
 C           -2.87028855        2.62079058        0.28721292
 C            0.57480136        3.91537693       -0.03442797
 C           -0.86961871        3.87949417       -0.17683796
 C            1.96881657        2.24208143       -1.14685991
 C            1.12934287        3.34671171       -1.25089152
 C            2.62700424        0.02853188       -1.87539330
 C            2.25597838       -1.19411828       -2.43817044
 C            1.76089594        1.12367953       -1.96838461
 C            0.45243623       -2.65570976       -2.75729784
 C            0.95083372       -1.32737119       -3.06365342
 C           -1.46216613       -3.62435553       -1.60933922
 C           -2.73880314       -3.03294154       -1.25294343
 C           -0.91539892       -2.86785378       -2.72014461
 C           -3.75035539       -0.88762015       -1.77710025
 C           -3.02911151       -1.98585282       -2.21479533
 C           -1.81118841       -1.74962223       -2.97206344
 C           -3.96296748        1.39163204       -1.38976524
 C           -3.19768209        2.59474132       -1.13456826
 C           -3.42880988        0.41735589       -2.32294245
 C           -1.14001898        3.80304417       -1.60040032
 C            0.08003041        3.35192403       -2.24906220
 C           -2.22528244        2.95792736       -2.05300785
 C            0.59058274        1.01232373       -2.73164642
 C            0.08237490       -0.24548119       -3.03516862
 C           -1.30202981       -0.45171497       -3.05564393
 C           -2.16935153        0.63365384       -2.88357299
 C           -0.21912818        2.11789560       -2.94030329
 C           -1.65825183        1.93220013       -2.92226935
