   70
C70 / DATE: 7/ 1/2024 / Origin: Program Fullerene / C70 from database
 C            1.00187421        0.01271566        4.81442053
 C            2.32051613       -0.28158981        4.30172771
 C            2.35491654       -1.70652691        4.01796635
 C            0.22642679       -1.21954397        4.75177066
 C            0.97465045       -2.13909860        3.92072346
 C           -1.11636566       -0.86328068        4.35523439
 C            0.21468492        1.03252680        4.15361922
 C           -1.15547623        0.58307862        4.22406369
 C            0.65436757        1.59018387        2.95289392
 C            2.75950125        0.39269649        3.09576839
 C            1.85750126        1.17059924        2.37229527
 C            3.21148924       -1.88660791        2.86709185
 C            3.57276102       -0.56278751        2.37649260
 C            2.69380699       -2.62234083        1.73220489
 C            0.47284525       -2.52174227        2.67213397
 C            1.36089880       -3.03386325        1.71623741
 C           -1.64417346       -1.40691927        3.12083409
 C           -0.83607643       -2.17335010        2.28987607
 C           -2.01506307        0.88784087        3.10155634
 C           -2.44913091       -0.36507054        2.51770864
 C           -0.27637448        2.24116655        2.14476049
 C           -1.63086272        1.88271080        2.21654176
 C            0.17810654        2.85071844        0.97957794
 C            2.05096952        1.34497155        0.99614750
 C            1.26003284        2.26688758        0.31210483
 C            3.47764941       -0.59855553        0.92846651
 C            3.22513808       -1.97370004        0.54924050
 C            2.77171033        0.39598582        0.26170896
 C            2.58611428       -2.20628423       -0.65914729
 C            0.85863688       -3.49001700        0.50275419
 C            1.62843899       -3.21602900       -0.69848184
 C           -1.23696687       -2.34331415        0.96634777
 C           -0.52939393       -3.22975605        0.17445067
 C           -2.65115963       -0.37969457        1.14120344
 C           -2.11052712       -1.42019099        0.37414181
 C           -2.39338844        2.00852494        1.06028134
 C           -2.93071715        0.83572390        0.51500156
 C           -0.74919520        3.58589997        0.25112289
 C           -2.11070781        3.09186478        0.23737610
 C           -0.41468840        4.00992988       -1.09151099
 C            1.31068841        2.29529129       -1.08482633
 C            0.66920787        3.32746474       -1.76172844
 C            2.42302390        0.16253626       -1.06883724
 C            2.46556178       -1.14840549       -1.56024707
 C            1.75003977        1.16050523       -1.77740249
 C            1.94506736       -1.42444051       -2.81799411
 C            0.70935748       -3.26765896       -1.81876635
 C           -0.63519394       -3.14319384       -1.26957822
 C            1.02603904       -2.54539224       -2.95825113
 C           -2.28585296       -1.40090490       -1.01839909
 C           -1.52401908       -2.23720464       -1.84295836
 C           -3.34588788        0.80301565       -0.80937095
 C           -3.05849451       -0.38715351       -1.58877952
 C           -2.57722391        3.10774814       -1.13580259
 C           -1.60552626        3.85732818       -1.91230983
 C           -3.15601901        1.96223512       -1.66510217
 C            0.25662876        3.12518241       -3.13265113
 C           -1.18126338        3.34772575       -3.20087255
 C            1.38012890        0.94617460       -3.11339286
 C            1.45418028       -0.33780866       -3.64090747
 C            0.53099303        1.84760230       -3.74982851
 C           -0.06541396       -2.10909563       -3.80443122
 C           -1.36971450       -1.92918788       -3.19647380
 C            0.31798609       -0.84138393       -4.39311444
 C           -2.81578211        0.02862583       -2.96009066
 C           -2.77768758        1.48366155       -2.98902468
 C           -1.78603749        2.13335850       -3.71945701
 C           -0.71625572        1.35585000       -4.31659872
 C           -1.92863543       -0.70152389       -3.73653905
 C           -0.87266475       -0.01471401       -4.47297161
