   70
C70 / DATE: 7/ 1/2024 / Origin: Program Fullerene / C70 from database
 C            1.61655810       -0.39923599        5.04295122
 C            0.74155026       -1.54893225        4.93505272
 C            1.24535659       -2.37707637        3.85692353
 C            2.61753738       -0.50083314        3.99200037
 C            2.32997994       -1.67389766        3.20007348
 C            2.65805674        0.76930323        3.31367387
 C            0.82158935        0.78290884        4.76547470
 C            1.57569672        1.59558974        3.83560385
 C           -0.57396597       -1.07594536        4.53068040
 C           -0.50107591        0.35755366        4.35643207
 C            0.10991607       -2.74513522        3.04602810
 C           -0.99776329       -1.87668416        3.40001096
 C            0.31358469       -2.94189763        1.69659838
 C            2.28501474       -1.56058869        1.80924936
 C            1.48706332       -2.45891339        1.10493235
 C            2.88140487        0.79742618        1.94198955
 C            2.67304177       -0.36878206        1.17949407
 C            2.68577588        2.02894869        1.33877296
 C            0.87739919        2.37853758        2.92152084
 C            1.61748648        2.86835230        1.85176219
 C           -1.02276166        0.91140588        3.19412030
 C           -0.48313388        2.11109309        2.72367162
 C           -1.69239181       -1.26635380        2.35201350
 C           -1.80883227        0.12809626        2.33583946
 C           -0.82098464       -2.96174502        0.90929518
 C           -1.76637877       -1.95804107        1.13684140
 C           -0.65540682       -3.46694024       -0.36208989
 C            1.56473802       -2.48907760       -0.28602728
 C            0.66999643       -3.34019134       -0.93131890
 C            2.56787851       -0.27562524       -0.22247094
 C            2.04449841       -1.35584771       -0.96113738
 C            2.67075690        2.11794598       -0.09671242
 C            2.78633484        0.96042547       -0.84852124
 C            0.94241938        3.47932381        0.72109248
 C            1.65966335        3.09052497       -0.47843071
 C           -1.17559086        2.79315652        1.73095551
 C           -0.43832123        3.51023771        0.70069946
 C           -2.42356370        0.74113460        1.24424665
 C           -2.28049763        2.11873873        1.07798974
 C           -2.41492167       -1.36053751        0.04961754
 C           -2.85380810       -0.03453382        0.16538747
 C           -1.60185667       -3.11218909       -1.39067645
 C           -2.43171012       -2.01643372       -1.19221870
 C            0.52206075       -3.27828022       -2.36419143
 C           -0.90421865       -3.25063996       -2.65700485
 C            1.90696752       -1.25599150       -2.35906015
 C            1.13405298       -2.17854445       -3.06431570
 C            2.55276741        1.09443672       -2.20917510
 C            2.23967178       -0.07058868       -2.99946762
 C            0.98177105        2.88462708       -1.67637779
 C            1.67560348        2.17122938       -2.64663547
 C           -1.12946421        3.31085689       -0.56101777
 C           -2.40819831        2.70009728       -0.24648214
 C           -0.42406007        2.88263358       -1.68883095
 C           -3.44545377        0.60809234       -0.92063921
 C           -3.05003713        1.97014681       -1.22754875
 C           -2.96843063       -1.39186830       -2.31469744
 C           -3.57376445       -0.08814309       -2.18253071
 C           -1.12889453       -2.25618275       -3.68986124
 C            0.16984167       -1.70559959       -4.04807837
 C           -2.22443315       -1.40952499       -3.56750852
 C            1.42993332        0.37903105       -4.12311517
 C            0.98917262        1.73435666       -3.83737615
 C            0.26271788       -0.39684047       -4.50084919
 C           -1.13219943        2.27190340       -2.73674729
 C           -2.47704310        1.94649238       -2.55990977
 C           -3.01391624        0.76896676       -3.21865174
 C           -2.13280370       -0.03874527       -4.04414054
 C           -0.45498686        1.74188434       -3.83411552
 C           -0.89698916        0.48092943       -4.41306277
