   70
C70 / DATE: 7/ 1/2024 / Origin: Program Fullerene / C70 from database
 C            1.63008783        0.09340947        4.57572247
 C            0.81455361       -1.10555188        4.53333608
 C            1.37435382       -1.99653791        3.53388620
 C            2.64992667       -0.02789684        3.54851165
 C            2.52417816       -1.32909403        2.93570979
 C            2.55325646        1.12771350        2.69184309
 C            0.77855407        1.21560297        4.21985560
 C            1.38434723        1.88831939        3.09451000
 C           -0.56600928       -0.69570032        4.39165956
 C           -0.57278792        0.72405800        4.06895167
 C           -1.42370362       -1.53070283        3.69488303
 C            0.51494644       -2.72351834        2.70907601
 C           -0.86878126       -2.60399731        2.87451530
 C            1.01282586       -3.19400558        1.49643358
 C            2.72158054       -1.45145764        1.56385636
 C            2.22522749       -2.59540904        0.96192005
 C            2.77011675        0.97448445        1.32945713
 C            2.93067475       -0.30747240        0.77659138
 C            2.33037244        2.00144092        0.50412798
 C            0.57019956        2.38557231        2.08465808
 C            1.18302840        2.70793160        0.87836034
 C           -1.33500528        1.16416700        2.98839792
 C           -0.80603529        2.10631174        2.08949655
 C           -2.50823146       -0.93424395        2.93875870
 C           -2.46097338        0.42449773        2.62968483
 C           -1.75022371       -2.77440646        1.72461890
 C           -2.88272359       -1.88639857        1.90690844
 C            0.10651536       -3.41204375        0.37937133
 C           -1.19540283       -2.94500248        0.45954648
 C            2.15869844       -2.66944500       -0.47909236
 C            0.86024615       -3.21664154       -0.83883764
 C            3.02929466       -0.43060067       -0.62112549
 C            2.67284916       -1.63399161       -1.24916163
 C            2.75686635        1.99660271       -0.81428350
 C            3.18082165        0.73193773       -1.38270469
 C            2.01257926        2.72638306       -1.82481200
 C            0.43755891        3.39036677       -0.06971266
 C            0.84270845        3.37966380       -1.46472234
 C           -1.60049064        2.57463053        1.03157353
 C           -1.00717162        3.28434005       -0.01351118
 C           -3.30517914        0.91071623        1.64224356
 C           -2.85536681        2.00995201        0.80962768
 C           -3.56199433       -1.42374422        0.79337290
 C           -3.99945222       -0.03965929        0.78954707
 C           -1.78671435       -2.34209839       -0.65772802
 C           -3.03101539       -1.72020011       -0.52799418
 C            0.23179023       -2.70957196       -1.96557678
 C           -1.04294585       -2.13754411       -1.83176655
 C            2.32788481       -1.64111224       -2.60090471
 C            1.07330899       -2.27158287       -2.98155085
 C            2.82780613        0.74293529       -2.79204949
 C            2.06547316        1.95892226       -3.05761804
 C            2.48612430       -0.44888086       -3.41056597
 C            0.95722433        1.92926451       -3.89965768
 C           -0.35530181        3.22785819       -2.27612050
 C           -1.48183210        3.06624562       -1.37106715
 C           -0.31124406        2.47401141       -3.44152441
 C           -3.27961014        1.73934703       -0.55840396
 C           -3.93048007        0.44621350       -0.57459603
 C           -3.34882031       -0.59662768       -1.39183910
 C           -2.41734803        2.06280383       -1.59898029
 C           -1.49023833       -1.18290567       -2.75842121
 C           -1.33022862        1.46068386       -3.65733570
 C           -2.42535135       -0.23556724       -2.35773958
 C           -2.17561669        1.11941200       -2.60402587
 C            0.52093965       -1.53774607       -4.09531910
 C            1.44749037       -0.46688665       -4.42739246
 C            0.66666919        0.73184019       -4.66626181
 C           -0.79181182       -0.95788333       -3.93838816
 C           -0.73298831        0.39848919       -4.45022216
