   70
C70 / DATE: 7/ 1/2024 / Origin: Program Fullerene / C70 from database
 C            1.25544595        0.02126302        4.33859044
 C            2.53745422       -0.19593542        3.70829492
 C            2.57136386       -1.57615728        3.26457503
 C            0.43247005       -1.15588730        4.09931650
 C            1.21466924       -2.09306494        3.32598275
 C           -0.83264776       -0.70628825        3.56343451
 C            0.48305100        1.17502006        3.93344044
 C           -0.88038768        0.73608485        3.69456810
 C            1.03003185        2.10422957        3.05587495
 C            2.90273956        0.63725596        2.57712762
 C            2.09958636        1.72151894        2.22645439
 C            3.25701908       -1.61267000        1.98718901
 C            3.38864863       -0.23914483        1.52331527
 C            2.86192084       -2.57563383        1.07595653
 C            0.67333165       -2.65970328        2.17448908
 C            1.56440870       -3.21119737        1.26232617
 C           -1.31901828       -1.27000740        2.39622234
 C           -0.60071177       -2.27544783        1.72979503
 C           -2.33538200       -0.59852986        1.72900281
 C           -1.65496839        1.46914502        2.79650559
 C           -2.47041639        0.78757015        1.88404862
 C            0.16665567        3.10364486        2.62370853
 C           -1.24647237        2.77412183        2.50694010
 C            0.53283751        3.91014585        1.47958629
 C            2.16916651        2.19696437        0.91312911
 C            1.54379768        3.39570881        0.58418534
 C            3.08464355        0.07469444        0.19859378
 C            2.65244056        1.36553981       -0.10305301
 C            2.96833000       -2.27590012       -0.33588608
 C            2.95351224       -0.94727169       -0.75384610
 C            1.09109894       -3.61451558       -0.04547434
 C            2.11589058       -3.23301520       -1.00765818
 C           -1.10129656       -2.78551929        0.52166116
 C           -0.24879756       -3.44113972       -0.37593466
 C           -3.01726629       -1.26649962        0.72208682
 C           -2.38613352       -2.42316539        0.11408238
 C           -3.68711211       -0.51341344       -0.32307187
 C           -3.19459060        1.52138532        0.94588514
 C           -3.70444633        0.87115328       -0.24954877
 C           -1.77405974        3.46713358        1.34182432
 C           -0.66935401        4.15566616        0.69845335
 C           -2.71344748        2.83018866        0.54699842
 C            1.06405386        3.60329939       -0.77039942
 C           -0.36472939        3.85134090       -0.68964292
 C            2.47293063        1.72292640       -1.43344987
 C            1.54193371        2.78395337       -1.77624469
 C            2.53160809       -0.64805139       -2.05639491
 C            2.32988155        0.67694565       -2.42640695
 C            1.73659893       -2.97582512       -2.31278087
 C            1.97011915       -1.64605302       -2.85605538
 C           -0.61062545       -3.56896458       -1.71720781
 C            0.41281422       -3.39611247       -2.73286800
 C           -2.72663159       -2.41923551       -1.29882486
 C           -3.40884876       -1.16800688       -1.59048181
 C           -1.82182329       -2.93958397       -2.21057827
 C           -3.02323377       -0.40941581       -2.69074796
 C           -3.28208303        1.66372230       -1.39649516
 C           -2.50817110        2.78413058       -0.89253633
 C           -1.24357454        3.05223567       -1.41966334
 C           -2.87092083        1.03051479       -2.55922468
 C            0.60677599        2.24107598       -2.74467234
 C            1.18495621        1.01180714       -3.26199261
 C           -0.76210130        2.30284079       -2.49888986
 C           -1.59785264        1.40175187       -3.15328679
 C            0.84575293       -1.31104882       -3.71871686
 C           -0.07869836       -2.43029970       -3.69868646
 C           -1.47486635       -2.17803475       -3.40357431
 C           -1.96114257       -0.88766582       -3.55951339
 C            0.35114708       -0.00877790       -3.70922260
 C           -1.02727479        0.21220403       -3.77061337
