   70
C70 / DATE: 7/ 1/2024 / Origin: Program Fullerene / C70 from database
 C            1.35082200       -0.06808927        4.16513995
 C            2.46271336       -0.21829730        3.24155136
 C            2.42869545       -1.58565082        2.74933126
 C            0.48081632       -1.22296236        4.00111040
 C            1.11831823       -2.12605582        3.07275098
 C           -0.84358440       -0.73813202        3.68828256
 C            0.52552454        1.12129062        4.08944441
 C           -0.85790203        0.68696064        3.96496599
 C            0.97563491        2.20217295        3.34378983
 C            2.78113445        0.81532279        2.36493731
 C            2.13460747        2.04729536        2.47323686
 C            3.45958762        0.51248226        1.18824696
 C            2.97540953       -1.88711370        1.50533927
 C            3.61996518       -0.87705264        0.78607848
 C            2.46792905       -2.99661361        0.83174308
 C            0.37241436       -2.70054222        2.05131959
 C            1.08678444       -3.38727515        1.07487319
 C           -1.50104745       -1.21240759        2.55579906
 C           -0.89038414       -2.17599305        1.73297701
 C           -2.61077326       -0.50144588        2.09011811
 C           -1.77177800        1.48425394        3.28983971
 C           -2.72453688        0.85507380        2.39028257
 C            0.01656850        3.05933844        2.66510427
 C           -1.33359354        2.72583812        2.66983133
 C            1.89618683        2.83301515        1.27244134
 C            0.63851829        3.54180127        1.44275031
 C            3.19894046        1.29716855       -0.01070657
 C            2.23803275        2.29905665        0.03151525
 C            3.65110140       -0.90646178       -0.67168181
 C            3.25346185        0.40544184       -1.15356475
 C            2.73534536       -3.16748825       -0.58288038
 C            3.21291762       -2.03296827       -1.34744042
 C            0.47087379       -3.66240835       -0.20930907
 C            1.51632850       -3.65390474       -1.20893871
 C           -1.50799816       -2.54867525        0.53530884
 C           -0.74158013       -3.06295919       -0.51029262
 C           -3.31721978       -0.98176289        0.99498314
 C           -2.80956729       -2.13847989        0.28829465
 C           -3.76834965       -0.02863567       -0.00680871
 C           -3.00940447        1.78738508        1.31156608
 C           -2.13695362        2.93653349        1.47427286
 C           -3.27752184        1.27185754        0.04478891
 C           -0.14175923        3.80752627        0.32787918
 C           -1.56950754        3.51818967        0.35268461
 C            1.40111533        2.50178544       -1.06965528
 C            0.35370666        3.41857260       -0.97785333
 C            2.28651608        0.51406923       -2.14774539
 C            1.47804195        1.65763981       -2.18382413
 C            2.33795168       -1.87410943       -2.49547583
 C            1.29749715       -2.88742663       -2.41573194
 C            1.98260739       -0.60288629       -2.94102995
 C           -1.03504501       -2.71595409       -1.83691152
 C            0.00081796       -2.51928764       -2.76020538
 C           -3.26940674       -2.04661370       -1.08417598
 C           -3.83923591       -0.72013742       -1.27244684
 C           -2.31612310       -2.27321112       -2.15424853
 C           -3.19579074       -0.12426465       -2.41996607
 C           -2.47437949       -1.18673743       -3.10408683
 C           -2.65813175        1.83254465       -1.08502287
 C           -1.94062787        3.02429632       -0.96202125
 C           -0.80651014        3.26525612       -1.83525056
 C           -2.61090190        1.13520666       -2.30292937
 C            0.58636440        1.84563323       -3.23735292
 C           -0.68150908        2.50527463       -2.98146816
 C           -1.72553923        1.54838667       -3.29864549
 C            0.92575698       -0.53592157       -3.84291693
 C           -0.13194078       -1.52741001       -3.73021011
 C           -1.40591223       -0.85345964       -3.92200268
 C            0.31400417        0.74147382       -4.12978314
 C           -1.12849665        0.55065174       -4.16999525
