   70
C70 / DATE: 7/ 1/2024 / Origin: Program Fullerene / C70 from database
 C            1.56195454        0.08502821        4.74864988
 C            0.75696731       -1.11472818        4.60232757
 C            1.56514105       -2.09087115        3.91456666
 C            2.70205042       -0.04154179        3.85489099
 C            2.77227425       -1.42024747        3.44350849
 C            2.58039826        0.97882341        2.83119682
 C            0.76542322        1.20467287        4.28453651
 C            1.50258432        1.86497788        3.23223475
 C           -0.51080380       -0.73093370        4.01189195
 C           -0.55882295        0.71919867        3.96136879
 C           -1.02674159       -1.44120542        2.92829345
 C            0.99221584       -2.78345050        2.77775198
 C           -0.30920231       -2.51041485        2.36089516
 C            2.89590771       -1.71206803        2.03074020
 C            2.02305781       -2.83632035        1.76723626
 C            2.69675527        0.64663604        1.47450008
 C            2.93978666       -0.68173122        1.08667231
 C            2.19894128        1.56095867        0.53515025
 C            0.78192245        2.46993861        2.21986554
 C            1.41833211        2.62146446        1.00122003
 C           -1.22221033        1.30665753        2.89061865
 C           -0.61322001        2.37164666        2.21539197
 C           -2.04962123       -0.84189195        2.19262182
 C           -2.17756913        0.55210101        2.21760993
 C           -2.68087105       -1.58572959        1.20266765
 C           -0.68904033       -2.99293275        1.10383881
 C           -1.97261164       -2.71810439        0.63976503
 C            1.63058011       -3.03359348        0.45816455
 C            0.30691169       -3.38815563        0.20061665
 C            2.75672160       -1.04337282       -0.24972503
 C            2.32694137       -2.34677871       -0.52617007
 C            2.16236623        1.21625517       -0.82077867
 C            2.59926659       -0.04669292       -1.21311878
 C            1.56098215        2.07723454       -1.75264396
 C            0.83647069        3.49356306        0.10239332
 C            1.06388303        3.30258403       -1.31216071
 C           -1.30600611        3.00046748        1.17381079
 C           -0.57413496        3.78816975        0.28284377
 C           -2.97847183        1.19978649        1.28591775
 C           -2.54919429        2.49519415        0.78294209
 C           -3.37711657       -0.91400456        0.11876970
 C           -3.55341447        0.45639916        0.17693841
 C           -2.25531240       -2.74977312       -0.78700366
 C           -2.92274506       -1.50686497       -1.12503067
 C           -0.03567664       -3.71118157       -1.11200604
 C           -1.30209758       -3.25030402       -1.65379715
 C            2.15456914       -2.75811089       -1.83901888
 C            0.96776809       -3.53546538       -2.15297158
 C            2.52786506       -0.40166992       -2.55428120
 C            2.35352943       -1.80040648       -2.90486086
 C            1.21005038        1.60735562       -3.02664616
 C            1.67410925        0.36571176       -3.43659478
 C            0.01503900        2.03260459       -3.60479457
 C           -0.05793972        3.92027820       -1.99857276
 C           -1.11999162        4.11251533       -1.02251981
 C           -0.62612150        3.24282071       -3.14025276
 C           -2.97892264        2.58275375       -0.60722298
 C           -3.35588388        1.24282568       -1.02787802
 C           -2.29430545        3.40315267       -1.49148776
 C           -2.00698765        2.90796189       -2.82620106
 C           -2.39902093       -0.68568535       -2.12362855
 C           -1.02250677        1.04212710       -3.83296159
 C           -2.74350972        0.66723456       -2.14256997
 C           -2.19546872        1.49292065       -3.11390250
 C           -1.01221772       -2.51529193       -2.87346056
 C            0.31928334       -2.91198251       -3.29376701
 C            1.21423473       -1.89810757       -3.80560068
 C            0.69961366       -0.56004199       -3.98775377
 C           -1.40523345       -1.17777857       -2.98257585
 C           -0.65090398       -0.29458660       -3.77045018
