   70
C70 / DATE: 7/ 1/2024 / Origin: Program Fullerene / C70 from database
 C            1.19194958        0.20215800        4.80406455
 C            2.43532079        0.02903401        4.08706272
 C            2.50318466       -1.36863001        3.72047063
 C            0.36046494       -0.96642735        4.52155140
 C            1.14116243       -1.86910753        3.71312139
 C           -0.90059763       -0.49068568        4.00153784
 C            0.39942447        1.37002824        4.49915674
 C           -0.96518114        0.90876084        4.34590138
 C            0.71326698        2.13476818        3.30133716
 C            2.65155357        0.79171546        2.86710552
 C            1.65003955        1.64242052        2.39903410
 C            3.24668265       -1.44772358        2.48282140
 C            3.32064340       -0.09632727        1.93912428
 C            2.90261459       -2.46448926        1.60926216
 C            0.62654490       -2.34160975        2.50831384
 C            1.53174452       -2.96324819        1.65458248
 C           -1.31293087       -0.86818690        2.72174586
 C           -0.53919794       -1.76764624        1.96782502
 C           -2.28359963       -0.08621502        2.07634615
 C           -1.58680406        1.78199562        3.38959365
 C           -0.55051219        2.61630946        2.79933624
 C           -2.49947027        1.23847273        2.50675991
 C           -0.68600287        2.91764121        1.44827032
 C            1.38900384        1.71709679        1.02355562
 C            0.27725527        2.43587983        0.54648833
 C            3.12260009        0.07369250        0.57503230
 C            2.23247253        1.05585087        0.12166099
 C            3.22542601       -2.28745313        0.21084242
 C            3.43482377       -0.99444785       -0.26317047
 C            1.13932083       -3.27980580        0.29786496
 C            2.33204708       -3.16347464       -0.52177191
 C           -0.89334501       -2.02221655        0.63314900
 C           -0.06069868       -2.79056031       -0.19568828
 C           -2.76097634       -0.49441040        0.82296132
 C           -2.07818689       -1.48889209        0.11803481
 C           -3.71416623        0.28630743        0.16225820
 C           -2.98268243        2.14884906        1.58795546
 C           -1.99757319        3.04585145        1.00574017
 C           -3.83764825        1.67363585        0.53387946
 C           -2.26630424        3.12713879       -0.40638675
 C           -3.54072349        2.46708640       -0.64161221
 C            0.01324597        2.46521570       -0.83474549
 C           -1.23712421        2.90704564       -1.30763959
 C            2.05227426        1.22290732       -1.25204021
 C            0.96771831        1.96096573       -1.73152834
 C            3.40778598       -0.78838025       -1.63287893
 C            2.78732900        0.42392369       -2.13293233
 C            2.18524896       -2.94794314       -1.88162052
 C            2.96954384       -1.88387364       -2.48191117
 C           -0.25749846       -2.79562542       -1.57866076
 C            0.84292051       -2.85311077       -2.43240795
 C           -2.44335892       -1.77864889       -1.19591488
 C           -1.46086140       -2.34606482       -2.09564641
 C           -3.81891525        0.23535071       -1.28697973
 C           -3.65586543        1.59411220       -1.79396872
 C           -3.22786853       -0.82284996       -1.95747903
 C           -1.61490517        2.64337978       -2.61945838
 C           -2.79271961        1.82214410       -2.85662517
 C            0.71319874        1.96223132       -3.10445807
 C           -0.61548706        2.26464276       -3.58301574
 C            2.25879198        0.12282848       -3.45394670
 C            2.19936493       -1.32029013       -3.57295353
 C            0.89396029       -1.95717410       -3.57853771
 C            1.17462119        0.84816733       -3.90591483
 C           -1.44762566       -1.54395298       -3.31102858
 C           -2.54293058       -0.58963215       -3.22193444
 C           -2.37140451        0.70851528       -3.68514863
 C           -1.10750713        1.08645697       -4.28733839
 C           -0.22280861       -1.18073514       -3.87539663
 C           -0.02006853        0.12725871       -4.32300730
