   70
C70 / DATE: 7/ 1/2024 / Origin: Program Fullerene / C70 from database
 C            1.73513170       -0.04070972        4.66122803
 C            0.87457349       -1.20599900        4.61118399
 C            1.23285673       -1.98906688        3.43704266
 C            2.61254704       -0.09640473        3.50835223
 C            2.33090140       -1.31199694        2.77163962
 C            2.48779679        1.15730438        2.79886586
 C            0.89232855        1.13451285        4.51574434
 C            1.33283080        1.85696569        3.33341975
 C           -0.49608754       -0.74809156        4.74216496
 C           -0.48911390        0.70336820        4.59645206
 C           -1.48407407       -1.49227206        4.11354386
 C            0.21003155       -2.54022405        2.66903878
 C           -1.07765172       -2.55609178        3.20972630
 C            0.38630637       -2.68006734        1.28320359
 C            2.32995893       -1.24369857        1.38525561
 C            1.51059690       -2.10388978        0.66511891
 C            2.63256154        1.14374249        1.42410683
 C            2.78307167       -0.07986644        0.76454639
 C            2.05237011        2.18511824        0.72098730
 C            0.38691221        2.36183598        2.43549038
 C            0.77865428        2.60021667        1.10994560
 C           -1.42159634        1.31759284        3.76998215
 C           -0.97051296        2.24099694        2.73464475
 C           -2.60905550       -0.81567955        3.48751915
 C           -2.52860800        0.54489436        3.22730506
 C           -2.20885820       -2.82808627        2.35254958
 C           -3.12133019       -1.69902562        2.45574592
 C           -0.65701677       -3.20033733        0.50130670
 C           -1.96367338       -3.06045763        0.95018005
 C           -0.49829147       -3.27313966       -0.87470039
 C            1.64604428       -2.13524119       -0.72191773
 C            0.77623648       -2.92556764       -1.45838994
 C            2.88998838       -0.05988332       -0.62730546
 C            2.39339433       -1.14007394       -1.36591071
 C            2.44728931        2.34022498       -0.59381243
 C            3.03099583        1.18367594       -1.24461631
 C            1.53805304        2.95274313       -1.53846818
 C           -0.19531260        2.83038239        0.12744406
 C            0.19486486        3.08483638       -1.19301624
 C           -1.93246108        2.18114556        1.65208870
 C           -2.80147364        1.03963814        1.88505031
 C           -1.50928185        2.42321287        0.35814185
 C           -3.32751386       -1.18199833        1.11188150
 C           -2.85177124       -2.19435642        0.19336646
 C           -3.04998323        0.14952117        0.83564234
 C           -1.52117925       -2.65006640       -1.70119501
 C           -2.44636261       -1.82200668       -1.08271409
 C            0.51482423       -2.59759982       -2.84562103
 C           -0.88720701       -2.21292166       -2.92440223
 C            2.42988911       -1.09448850       -2.76377457
 C            1.44414392       -1.83776211       -3.53353300
 C            2.80370973        1.32258368       -2.66983779
 C            1.91579475        2.46628651       -2.85926197
 C            2.64670723        0.17771202       -3.43620745
 C            0.97952833        2.46929707       -3.88596646
 C           -0.77750981        3.03463921       -2.19363806
 C           -0.39031356        2.83080416       -3.58046084
 C           -2.20307639        1.80451339       -0.67072636
 C           -2.68396425        0.51352645       -0.46232240
 C           -2.46834599       -0.47085340       -1.44184540
 C           -1.96654419        2.23718927       -1.96095176
 C           -1.21773999       -0.97485075       -3.46510895
 C           -1.25584715        1.79598891       -4.12843330
 C           -2.00043632       -0.08504723       -2.70707123
 C           -2.04745822        1.27017917       -3.03376016
 C            0.95595403       -0.96311586       -4.58501109
 C            1.80059544        0.21658024       -4.61486338
 C            0.93931297        1.36603092       -4.83022475
 C           -0.42313005       -0.51246866       -4.51590117
 C           -0.43397401        0.88614659       -4.88893579
