   70
C70 / DATE: 7/ 1/2024 / Origin: Program Fullerene / C70 from database
 C            1.50287006       -0.09805178        4.76528594
 C            0.72123420       -1.28915573        4.50242152
 C            1.34522525       -2.01410490        3.40682118
 C            2.64762832       -0.12386001        3.87823124
 C            2.52991735       -1.28077816        3.00403317
 C            2.73144667        1.18023082        3.25731065
 C            0.69041877        1.04730141        4.38736222
 C            1.40754644        1.77575934        3.36136579
 C           -0.65743972       -0.87341965        4.34294081
 C           -0.63641620        0.55890357        4.08340714
 C           -1.47365206       -1.66468930        3.54860297
 C            0.52474599       -2.55534281        2.42787251
 C           -0.84302358       -2.65316741        2.68842172
 C            0.96974865       -2.58709242        1.10629301
 C            2.80774162       -1.10771798        1.64820289
 C            1.98717113       -1.71839655        0.68862371
 C            3.36338544        1.24981534        2.03263478
 C            3.55356357        0.01039209        1.29018754
 C            2.85717430        2.19613744        1.06593070
 C            0.73955861        2.14579533        2.19105600
 C            1.49417135        2.48752841        1.06571266
 C           -1.29444756        1.03498910        2.95513523
 C           -0.62366078        1.87014394        2.04463008
 C           -2.50193013       -1.02142758        2.74923097
 C           -2.43615759        0.35314129        2.53831205
 C           -1.76260597       -2.92673414        1.59833967
 C           -2.78289355       -1.89004444        1.61508538
 C            0.18646881       -3.23878440        0.16281603
 C           -1.24835203       -3.34066743        0.38523635
 C            0.38954638       -2.97045386       -1.24543447
 C            2.11977579       -1.38322916       -0.67431831
 C            1.28900644       -1.98356569       -1.63332766
 C            3.66117493        0.37674217       -0.10530458
 C            3.48741059        1.82218291       -0.17701308
 C            3.05509264       -0.41760218       -1.07191498
 C            2.98016044        2.35604491       -1.34376892
 C            0.85701727        2.73938739       -0.15521903
 C            1.63408276        2.91139709       -1.30353609
 C           -1.27417905        2.25624575        0.87224995
 C           -0.52008647        2.52653262       -0.27851020
 C           -3.18732261        0.88899239        1.50452252
 C           -2.63940738        2.01368860        0.77639027
 C           -3.21552474       -1.30507827        0.42489688
 C           -3.73776723       -0.01832596        0.51253603
 C           -1.90121246       -2.90393164       -0.83021636
 C           -0.91544760       -3.03287368       -1.88290271
 C           -2.73464075       -1.78429218       -0.80516569
 C           -1.11249736       -2.33288349       -3.05583867
 C            1.17744185       -1.43924012       -2.91717862
 C            0.02303997       -1.66810654       -3.66696391
 C            3.00761094        0.09334631       -2.36585864
 C            3.06490449        1.53550870       -2.53274567
 C            2.02932797       -0.41221850       -3.30665812
 C            1.03708994        2.69965334       -2.60951378
 C            1.97574667        1.92428075       -3.40123041
 C            1.49159881        0.72447668       -4.05029368
 C           -1.11183524        2.49131582       -1.55489767
 C           -0.31174962        2.38424634       -2.69315328
 C           -3.28439341        2.03187405       -0.51666905
 C           -3.95984801        0.75134351       -0.68825793
 C           -2.47520763        2.25348252       -1.69221996
 C           -2.93689927       -1.05978474       -1.99072612
 C           -2.24570437       -1.42612374       -3.14678460
 C           -3.52975200        0.20164130       -1.95279067
 C           -2.91834609        1.29635264       -2.68800256
 C           -0.50396763       -0.59110018       -4.48330068
 C            0.15879650        0.69576827       -4.42793260
 C           -0.75765390        1.62615364       -3.78164444
 C           -1.89579878       -0.39601328       -4.11211472
 C           -2.06902017        0.99746213       -3.74069169
