   70
C70 / DATE: 7/ 1/2024 / Origin: Program Fullerene / C70 from database
 C            1.56055911       -0.05575948        4.78951145
 C            0.78036102       -1.25927173        4.59544719
 C            1.32009959       -1.98031904        3.45136505
 C            2.65817559       -0.09714663        3.84736023
 C            2.48761656       -1.25976873        2.98875534
 C            2.71426964        1.20089119        3.21166246
 C            0.71671228        1.06991813        4.41854398
 C            1.38949524        1.78693597        3.35604145
 C           -0.60878226       -0.85578642        4.53935647
 C           -0.61096095        0.55236320        4.16894995
 C           -1.47379934       -1.69564477        3.86236412
 C            0.41813730       -2.50002503        2.52932105
 C           -0.88935423       -2.68928422        2.97473211
 C            0.66660704       -2.35274720        1.15343127
 C            2.69947171       -1.09555296        1.62484546
 C            1.81850610       -1.68104007        0.70809721
 C            3.29829527        1.25656209        1.96232424
 C            3.44685545        0.00863743        1.22639804
 C            2.75883882        2.19583119        1.00637113
 C            0.68005451        2.13406722        2.20446695
 C            1.40205989        2.51187070        1.07027145
 C           -1.28915250        0.93587396        3.01363358
 C           -0.66800995        1.77652766        2.07180681
 C           -2.56223166       -1.09989446        3.11436200
 C           -2.42197068        0.20581009        2.64780530
 C           -1.91595827       -3.06270083        2.03117188
 C           -3.01917638       -2.12688806        2.19866710
 C           -0.28024565       -2.80119249        0.21665765
 C           -1.58108138       -3.08996752        0.62873654
 C           -0.08777098       -2.53270758       -1.13955000
 C            2.01031212       -1.46734949       -0.66374740
 C            1.16169699       -2.09234899       -1.57608380
 C            3.50318130        0.35925186       -0.17778199
 C            3.32215469        1.79855219       -0.26429673
 C            2.85625720       -0.44170897       -1.10733375
 C            2.74986172        2.31198026       -1.41126830
 C            0.72849658        2.82493965       -0.11257502
 C            1.47160833        2.98972785       -1.28594159
 C           -1.35470189        2.13184979        0.90728021
 C           -0.65691346        2.65935138       -0.18378038
 C           -3.16551080        0.61200426        1.54644876
 C           -2.67071115        1.70730733        0.73772111
 C           -3.46783277       -1.72945426        0.87850805
 C           -2.68072435       -2.47303333       -0.08738918
 C           -3.71586084       -0.38880653        0.63789352
 C           -1.21961248       -2.31908030       -1.93738422
 C           -2.39103373       -1.90963278       -1.32030148
 C           -1.07079211       -2.01312033       -3.27749708
 C            1.38060535       -1.90867567       -2.94067856
 C            0.25654696       -2.04147846       -3.84587638
 C            2.69780708        0.06394224       -2.39621028
 C            2.64442052        1.44853431       -2.57227085
 C            2.15596531       -0.76012451       -3.37149690
 C            0.82076686        2.91291609       -2.58437506
 C            1.61664234        2.02638136       -3.42263092
 C           -1.31776779        2.83940295       -1.40144767
 C           -0.56169188        2.86108468       -2.64203999
 C           -3.19849270        1.51560585       -0.60156657
 C           -3.55824641        0.11629029       -0.71314351
 C           -2.92862670       -0.66827052       -1.67904682
 C           -2.54556709        2.11110095       -1.66337543
 C           -1.74853710       -0.82508795       -3.76489303
 C           -1.21557357        1.95696986       -3.57775792
 C           -2.46330084       -0.05310170       -2.84715978
 C           -2.33439907        1.33981628       -2.87833639
 C            0.33445428       -0.98487157       -4.83838519
 C            1.46928560       -0.15010587       -4.49877518
 C            0.99792665        1.21624881       -4.36481682
 C           -0.86389219       -0.17213882       -4.71386532
 C           -0.45582187        1.19554019       -4.45722966
