   70
C70 / DATE: 7/ 1/2024 / Origin: Program Fullerene / C70 from database
 C            1.25463056       -0.05315067        4.19893858
 C            2.46990616       -0.28382772        3.43772794
 C            2.43743619       -1.67193445        2.99643956
 C            0.40874665       -1.22635643        4.03668601
 C            1.05771770       -2.10592773        3.09125743
 C           -0.92906791       -0.77092692        3.73165333
 C            0.45165242        1.11997930        3.91276605
 C           -0.91955754        0.68437831        3.71829668
 C            0.96846853        2.10500104        3.09125853
 C            2.94870275        0.70208998        2.57207844
 C            2.24825619        1.90086164        2.42463853
 C            3.86641999        0.34054078        1.58796859
 C            3.17113228       -2.03341618        1.87959049
 C            4.11245816       -1.07050013        1.34705036
 C            2.47306713       -2.62898438        0.74963958
 C            0.37277048       -2.45505772        1.93181144
 C            1.08667027       -2.69528833        0.75282685
 C           -1.66932876       -1.42948373        2.75592002
 C           -1.01874112       -2.31446643        1.88119194
 C           -2.83990387       -0.80023287        2.34720438
 C           -1.75122427        1.34301976        2.81101916
 C           -2.88471878        0.65253178        2.38025709
 C            0.08632588        2.78621026        2.16272019
 C           -1.25103807        2.41049770        2.04873962
 C            2.17006669        2.52394295        1.11131404
 C            0.84048466        3.07283244        0.95143543
 C            3.81538899        1.00231556        0.29230427
 C            2.78632911        1.90796049        0.03409865
 C            4.18999206       -1.27420138       -0.08681644
 C            3.14585508       -2.21266423       -0.46719965
 C            4.20378612        0.03127895       -0.71982658
 C            2.39563560       -1.93494245       -1.60986661
 C            0.41548667       -2.73399018       -0.46480924
 C            1.01155830       -2.18124266       -1.60546820
 C           -1.69098550       -2.80761710        0.76444590
 C           -0.93960816       -3.02732591       -0.45965351
 C           -3.53885208       -1.24905819        1.15901578
 C           -2.99141703       -2.27230910        0.40024067
 C           -3.62974364        1.10286905        1.22019418
 C           -4.09827196       -0.07583188        0.50434455
 C           -1.93951679        2.84622054        0.91755610
 C           -3.17908724        2.20714261        0.51594084
 C            0.19647674        2.98062931       -0.27682665
 C           -1.18270544        3.15647137       -0.28719974
 C            2.16795388        1.92212222       -1.21947750
 C            0.82026252        2.31201663       -1.33898423
 C            3.64799965        0.13592420       -1.98212632
 C            2.92844928       -1.01173300       -2.50651005
 C            2.81241241        1.28271432       -2.27399768
 C            2.11286815       -0.51679030       -3.58836171
 C            2.06882436        0.93637633       -3.46256590
 C            0.21265484       -1.78990970       -2.69587944
 C            0.74614821       -0.97204371       -3.69104436
 C           -1.76189284       -2.61298684       -1.57703823
 C           -3.06075112       -2.21344724       -1.05043077
 C           -1.18021865       -1.89921036       -2.61962975
 C           -4.21198338       -0.04540994       -0.88086599
 C           -3.76607612       -1.18697869       -1.66606488
 C           -3.23083021        2.20931262       -0.93682935
 C           -1.95658161        2.71743931       -1.42872325
 C           -3.85600449        1.16454230       -1.60648744
 C            0.08351352        2.01207486       -2.50070713
 C            0.68109520        1.32448566       -3.55389047
 C           -0.01526197        0.18378567       -4.11544224
 C           -1.31249318        2.07647883       -2.47883143
 C           -1.97464965       -1.06252673       -3.40666884
 C           -3.30049900       -0.68826395       -2.94471969
 C           -3.34992518        0.76643054       -2.90559626
 C           -1.38762839        0.13525257       -3.97878319
 C           -2.04903941        1.25230736       -3.33124850
