   70
C70 / DATE: 7/ 1/2024 / Origin: Program Fullerene / C70 from database
 C            1.20981129        0.05535002        5.05581846
 C            2.48372601        0.13497706        4.36759809
 C            2.61622152       -1.07429814        3.57394623
 C            0.46921542       -1.05976342        4.47960206
 C            1.30985050       -1.68226525        3.47472714
 C           -0.83567603       -0.57110333        4.08211470
 C            0.34090034        1.21518118        5.05839864
 C           -0.96025308        0.78891384        4.57178949
 C            0.73287890        2.39459683        4.30370937
 C            2.76676719        1.26728870        3.49383799
 C            1.87735734        2.33108607        3.40928254
 C            3.27451647       -0.71515575        2.34026412
 C            3.33887044        0.73664143        2.27349504
 C            2.92083506       -1.37846753        1.17325631
 C            0.79073790       -1.90407569        2.20298692
 C            1.66428476       -1.99983729        1.11010076
 C           -1.30342194       -0.85374766        2.80250324
 C           -0.57363715       -1.70253850        1.97147375
 C           -2.20424331        0.02938558        2.21685473
 C           -1.44373650        1.80128863        3.65394761
 C           -0.41171981        2.81459890        3.51813804
 C           -2.08014851        1.39491320        2.49155978
 C            1.45646346        2.80436774        2.09598542
 C            0.04802683        3.14276924        2.17340005
 C            3.05401201        1.33780444        1.04859624
 C            1.93918724        2.17892500        0.94834392
 C            3.42816107       -0.82309757        0.01236904
 C            3.44616195        0.62900985       -0.07630131
 C            2.98191761       -1.32612469       -1.26392756
 C            1.13093438       -2.36368200       -0.13287352
 C            1.86310044       -2.14772090       -1.30979787
 C           -1.08424074       -2.00388796        0.71308891
 C           -0.23968272       -2.60277404       -0.21509284
 C           -2.80827392       -0.33047488        1.01170280
 C           -2.26964804       -1.39807678        0.27768858
 C           -3.47572199        0.68314153        0.33297676
 C           -2.01798790        2.25757892        1.40824717
 C           -0.77832775        2.81190736        1.10443029
 C           -2.88892804        2.00568465        0.37092587
 C            1.14169161        2.15536598       -0.20931553
 C           -0.20648602        2.52044118       -0.14019725
 C            2.87906078        0.97101858       -1.36016774
 C            3.05608006       -0.20851448       -2.18223850
 C            1.65898970        1.63893629       -1.39851668
 C            2.32619444       -0.29333790       -3.34647054
 C            1.24901796       -2.34529154       -2.55023219
 C            1.64568552       -1.54183831       -3.62686726
 C           -0.77644585       -3.08201360       -1.39785376
 C            0.03977929       -3.03774767       -2.59486211
 C           -2.76396824       -1.70043902       -1.00187051
 C           -2.12290847       -2.67910584       -1.76082579
 C           -3.91380598        0.46535468       -1.02362671
 C           -3.58761583       -0.78898989       -1.66303746
 C           -2.43139499        2.26793395       -0.97433770
 C           -1.05909929        2.24779065       -1.21750855
 C           -3.32437783        1.52572294       -1.83298127
 C            0.82511244        1.44446018       -2.50519177
 C            1.34232785        0.74149455       -3.59545778
 C           -0.56048382        1.61565964       -2.36855403
 C            0.71515056       -1.22496601       -4.69402582
 C            0.44985771        0.20622110       -4.59964298
 C           -0.85554070       -2.89672624       -3.73230511
 C           -2.18357348       -2.60823088       -3.21491917
 C           -0.55455829       -1.91535562       -4.75363431
 C           -3.30359766       -0.45218078       -3.04599495
 C           -2.78274695        0.90366136       -3.01241769
 C           -1.44943675        1.10919787       -3.34223823
 C           -0.96920561        0.37264961       -4.41980028
 C           -2.65364722       -1.38323342       -3.84042206
 C           -1.59834568       -0.90625612       -4.71965324
