   70
C70 / DATE: 7/ 1/2024 / Origin: Program Fullerene / C70 from database
 C            1.58281184       -0.02707399        4.49693005
 C            0.75118998       -1.20703745        4.39649979
 C            1.26272330       -2.03363339        3.31554849
 C            2.58569030       -0.10994226        3.45143752
 C            2.31867904       -1.28779642        2.65359670
 C            2.59720657        1.16428975        2.77563287
 C            0.74087431        1.12023643        4.19953165
 C            1.42115611        1.89956038        3.19485277
 C           -0.62604455       -0.76130586        4.31184745
 C           -0.58501847        0.63087081        3.89213800
 C           -1.51977583       -1.60255314        3.67794397
 C            0.34047263       -2.71707916        2.53543595
 C           -0.98335653       -2.75548614        2.97547279
 C            0.60138857       -2.88673620        1.17471967
 C            2.28818502       -1.15464080        1.26723305
 C            1.46951423       -2.00203748        0.51950726
 C            2.87698076        1.19438799        1.41979737
 C            2.79754557        0.00722505        0.67538440
 C            2.58658769        2.38199920        0.76351205
 C            0.67963584        2.49890029        2.18664224
 C            1.40955453        3.04788903        1.13774992
 C           -1.17755703        0.99946395        2.68072565
 C           -0.61338691        2.02346178        1.90568470
 C           -2.48486073       -1.01959688        2.77065524
 C           -2.17359796        0.18239819        2.13388771
 C           -2.01968272       -3.20015140        2.06308380
 C           -3.00815731       -2.12470279        1.99103851
 C           -0.26866910       -3.67697581        0.43026318
 C           -1.63369710       -3.85657478        0.90306504
 C           -0.31014814       -3.53091761       -1.01043535
 C            1.41936985       -1.85704444       -0.87140013
 C            0.45818497       -2.54711439       -1.61696103
 C            2.85432382        0.09208349       -0.72025903
 C            2.16894776       -0.85174502       -1.49446864
 C            3.09393188        2.51726769       -0.51835108
 C            3.25828469        1.30306904       -1.29345643
 C            2.58549594        3.55633868       -1.38955673
 C            0.70158539        3.79198740        0.20577413
 C            1.33615974        4.18893836       -1.03441193
 C           -1.19530341        2.33718791        0.67168780
 C           -0.65395524        3.37334517       -0.08566133
 C           -2.62046488        0.40562095        0.82656147
 C           -2.02054797        1.39858390        0.05202536
 C           -3.63238458       -1.84348704        0.78633378
 C           -3.46704881       -0.51772103        0.21121916
 C           -2.51673825       -3.82437658       -0.24623102
 C           -1.69377842       -3.67428037       -1.43277995
 C           -3.55643487       -2.81379627       -0.29133654
 C           -3.41872110       -0.66187598       -1.23235099
 C           -2.27208091       -2.62358734       -2.25211902
 C           -3.41463038       -2.08325539       -1.53694270
 C           -0.03809786       -1.96249821       -2.77743847
 C           -1.40934413       -1.72238440       -2.86068864
 C            2.00422043       -0.64226323       -2.86554229
 C            0.80881764       -1.15139742       -3.51501726
 C            2.92871398        1.61499574       -2.67342346
 C            2.44235347        2.98851204       -2.71748796
 C            2.29731056        0.65727125       -3.44779905
 C            0.38875583        3.95030370       -2.10926515
 C           -0.80021216        3.34643671       -1.52926091
 C            1.08460081        3.24955169       -3.17332653
 C           -2.07384831        1.31784662       -1.34753939
 C           -2.56350720        0.16138624       -1.95189900
 C           -1.83374633       -0.40227989       -2.99522926
 C           -1.35026590        2.22015407       -2.12727220
 C            0.21155265       -0.05232176       -4.25011222
 C            1.14578443        1.05528708       -4.23953729
 C            0.41163543        2.25033325       -3.86076745
 C           -1.07759210        0.43802340       -3.79876655
 C           -0.89757035        1.82046309       -3.38632451
