   70
C70 / DATE: 7/ 1/2024 / Origin: Program Fullerene / C70 from database
 C            1.26254156        0.26171929        5.30460072
 C            0.46103847       -0.94597947        5.36801077
 C            1.31447738       -2.06240521        4.99990518
 C            2.51672163       -0.07996857        4.65356655
 C            2.61051286       -1.52403883        4.61389286
 C            2.58419628        0.66819003        3.40870478
 C            0.56507759        1.21062744        4.45247161
 C            1.46218875        1.59207885        3.38784286
 C           -0.75418757       -0.71194876        4.60861890
 C           -0.71053933        0.64213049        4.07322342
 C           -1.25368277       -1.72570949        3.80691860
 C            0.88009476       -2.96774716        3.94791766
 C           -0.39902856       -2.84726408        3.42193145
 C            2.99933684       -2.15563824        3.36956903
 C            1.99131252       -3.14969958        3.03505573
 C            2.94655751        0.03803836        2.21325585
 C            3.19588414       -1.33745662        2.18500133
 C            2.60429230        0.66336936        1.01258009
 C            0.91719637        1.89750806        2.15161127
 C            1.74337774        1.75973002        1.05368922
 C           -1.17683340        0.87909167        2.77711048
 C           -0.45484513        1.74076498        1.94218922
 C           -2.03179803       -1.36323271        2.64044906
 C           -2.05140904       -0.03839215        2.19592962
 C           -0.61646665       -3.09600773        2.00273702
 C           -1.84052728       -2.41106175        1.65674305
 C            1.75329016       -3.06896385        1.59883151
 C            2.69612730       -2.11127121        1.06075128
 C            0.45050073       -3.05578179        1.10552372
 C            2.65495023       -0.08145072       -0.16677103
 C            2.34470566       -1.43216567       -0.09358750
 C            2.38318303        0.57136708       -1.36216651
 C            1.29867675        2.27336074       -0.14979900
 C            2.00911146        1.90791879       -1.27807272
 C           -0.94678111        2.01099425        0.65964265
 C           -0.06685270        2.52595861       -0.29453844
 C           -2.50045802        0.19023709        0.89429657
 C           -2.09106659        1.34801052        0.22024174
 C           -2.06156481       -2.06460503        0.34199853
 C           -2.82785051       -0.93318733        0.13879544
 C            0.22688578       -2.56089923       -0.18741946
 C            1.26245065       -1.89260437       -0.84420341
 C           -1.08483357       -2.34948097       -0.61350537
 C            1.84555327       -0.18974384       -2.39899510
 C            1.00841351       -1.25081359       -2.05783663
 C            1.69986659        0.41639515       -3.63747093
 C            1.71671926        2.57861552       -2.45082554
 C            1.89692605        1.85170707       -3.68821625
 C           -0.54254300        2.84912032       -1.56739282
 C            0.41068100        3.20337029       -2.52888742
 C           -2.53718894        1.54818303       -1.09312685
 C           -1.79769610        2.36419346       -1.96661025
 C           -3.31067489       -0.74916845       -1.13461837
 C           -3.42028342        0.60288636       -1.61714088
 C           -1.32218252       -1.89556347       -1.91478815
 C           -0.26215252       -1.33368656       -2.64460329
 C           -2.62335856       -1.47360090       -2.18213279
 C            0.51544172        0.11826637       -4.41975607
 C           -0.51294498       -0.62716960       -3.83772815
 C            0.97628056        2.40993730       -4.65767683
 C            0.05620739        3.27376665       -3.93266177
 C            0.19818377        1.31229403       -5.19602677
 C           -2.22808995        2.52579546       -3.29246683
 C           -1.28096093        2.90237228       -4.32476357
 C           -1.17219244        1.77152067       -5.24231859
 C           -3.58000831        0.46564694       -3.04868827
 C           -2.91898699       -0.78345557       -3.41465440
 C           -1.82439894       -0.43739575       -4.28561401
 C           -3.04819452        1.49917556       -3.89933975
 C           -2.20837948        0.83321618       -4.87920406
