   70
C70 / DATE: 7/ 1/2024 / Origin: Program Fullerene / C70 from database
 C            1.49611694        0.04912842        4.82702612
 C            0.70550864       -1.14043772        4.60060635
 C            1.29719285       -1.88843165        3.49993088
 C            2.63423867       -0.01378840        3.93428432
 C            2.46057889       -1.15503709        3.04838233
 C            2.76174667        1.29267999        3.32735328
 C            0.68696526        1.18539906        4.41420991
 C            1.46090942        1.93452700        3.45156821
 C           -0.66839074       -0.70839692        4.45021746
 C           -0.60778944        0.67713443        4.01041326
 C           -1.50600292       -1.55689635        3.75813371
 C            0.42938967       -2.44943489        2.56995735
 C           -0.88437722       -2.62508294        2.99302777
 C            0.68965483       -2.29993747        1.19611582
 C            2.66750517       -0.96327677        1.68736552
 C            1.77476064       -1.51988654        0.76389640
 C            3.37955954        1.35233525        2.09112336
 C            3.44559336        0.12683931        1.30427570
 C            2.95845269        2.38958878        1.17120213
 C            0.84528957        2.39576843        2.29273414
 C            1.67073594        2.91090975        1.29702253
 C           -1.11404952        1.01216623        2.75007027
 C           -0.43690295        1.93559832        1.94376954
 C           -2.46443609       -0.96948999        2.84986797
 C           -2.12594452        0.21793166        2.19667586
 C           -1.87449031       -3.07156428        2.04692590
 C           -2.94723602       -2.08506759        2.07240619
 C           -0.22843534       -2.79447236        0.25077875
 C           -1.48315333       -3.23146268        0.66529153
 C           -0.06024672       -2.50089015       -1.10508483
 C            1.93077278       -1.24652754       -0.59937368
 C            1.12893244       -1.90385483       -1.52909539
 C            3.49130618        0.51726146       -0.09064668
 C            3.42694693        1.96883543       -0.13545045
 C            2.77157679       -0.20953888       -1.02672865
 C            2.88463531        2.57574564       -1.25689491
 C            1.08317896        3.51479338        0.19578806
 C            1.81200887        3.53458739       -1.06117999
 C           -0.96372998        2.26123522        0.69173516
 C           -0.30253891        3.20168104       -0.09882509
 C           -2.53321359        0.42030641        0.86650785
 C           -1.92696897        1.43271390        0.10832930
 C           -3.32328760       -1.84174797        0.70675013
 C           -2.63656877       -2.82809993       -0.10656873
 C           -3.35183869       -0.53582458        0.23662970
 C           -1.16833586       -2.57994995       -1.96998454
 C           -2.46048340       -2.51267039       -1.44143491
 C           -1.00305875       -2.35905700       -3.33639931
 C            1.34281074       -1.65686083       -2.88041847
 C            0.28695203       -1.93444382       -3.83400118
 C            2.58157107        0.35654374       -2.28687544
 C            2.52524622        1.74728439       -2.39649729
 C            1.94281592       -0.39427282       -3.26352927
 C            0.85313220        3.36299567       -2.13629175
 C           -0.44864663        3.14865777       -1.54424388
 C            1.36383426        2.34808837       -3.03485361
 C           -2.18252275        1.53798800       -1.26272636
 C           -1.25688145        2.16712246       -2.08964554
 C           -3.63181549       -0.40935994       -1.11848933
 C           -3.33209362       -1.55797328       -1.95516773
 C           -3.16566106        0.75269359       -1.83871027
 C           -2.00853224       -1.58734083       -4.05089103
 C           -3.14362785       -1.08208796       -3.30729788
 C           -3.02364964        0.36707112       -3.23527888
 C            0.07933546       -0.72866233       -4.62638099
 C            0.97499747        0.28142817       -4.10587239
 C            0.46279570        1.49617289       -3.66081350
 C           -0.89114971        1.56915845       -3.30247860
 C           -1.33876373       -0.44299199       -4.63884920
 C           -1.81222433        0.74244755       -3.94339297
