   70
C70 / DATE: 7/ 1/2024 / Origin: Program Fullerene / C70 from database
 C            1.63467897       -0.03074960        4.50352284
 C            0.82719825       -1.22036787        4.33146984
 C            1.30062700       -1.92971669        3.15236451
 C            2.69087006       -0.08194963        3.51619170
 C            2.50953910       -1.27178130        2.70417051
 C            2.69700736        1.19086552        2.82665842
 C            0.79476540        1.11223881        4.18085797
 C            1.40310145        1.80590662        3.06637816
 C           -0.55436690       -0.79480014        4.34875193
 C           -0.55679876        0.62609334        4.03207188
 C           -1.46320870       -1.59137808        3.67900105
 C            0.35890764       -2.35279199        2.21770464
 C           -0.95243255       -2.50028906        2.65840796
 C            0.61156590       -2.17687569        0.84838635
 C            2.74664398       -1.14159498        1.34534226
 C            1.87121018       -1.73102238        0.42695686
 C            3.15672694        1.19879268        1.52307582
 C            3.47222728       -0.02755996        0.93881377
 C            2.66252886        2.18821370        0.68756719
 C            0.62572954        2.15564517        1.96046174
 C            1.29465186        2.48108016        0.77209484
 C           -1.32556844        1.05999463        2.95528193
 C           -0.73300737        1.79816100        1.91387319
 C           -2.62097766       -0.95016301        3.09269253
 C           -2.52365900        0.38872119        2.71421441
 C           -2.01064575       -2.69262990        1.69300231
 C           -3.15362056       -1.91229530        2.15099982
 C           -0.41518203       -2.37063795       -0.09206072
 C           -1.70602828       -2.71576891        0.33854153
 C           -0.15913225       -2.17604294       -1.46096061
 C            2.13396910       -1.56540475       -0.93613980
 C            1.13140907       -1.80824135       -1.88003608
 C            3.95212974       -0.01640264       -0.35936334
 C            3.30009049       -0.88868245       -1.31914067
 C            3.34388513        2.38707920       -0.50484826
 C            4.13608435        1.27554545       -0.99924611
 C            2.64359125        2.96801959       -1.62912671
 C            0.55354499        2.68130094       -0.39707886
 C            1.19857706        3.03009278       -1.57661710
 C           -1.45111297        2.01393822        0.73307131
 C           -0.76083948        2.23211365       -0.45566753
 C           -3.36992235        0.86667296        1.72316684
 C           -2.80514176        1.70410724        0.68208626
 C           -4.08385083       -1.47929120        1.22093361
 C           -4.31335963       -0.04810886        1.10004940
 C           -2.76722873       -2.64720427       -0.55241781
 C           -4.01162758       -2.02697085       -0.11920969
 C           -1.22660945       -2.13539675       -2.37810165
 C           -2.52531720       -2.20529992       -1.90094839
 C           -1.08134994       -1.37530964       -3.52925960
 C            1.35994686       -1.46011400       -3.21511305
 C            0.23507241       -1.17131647       -4.06931376
 C            3.37887077       -0.24007509       -2.61877810
 C            3.86031201        1.11687841       -2.41267953
 C            3.02130236        2.22696186       -2.82215996
 C            2.36339703       -0.46311549       -3.53253046
 C            0.68871639        2.51124412       -2.83160639
 C            0.32841236        0.22872656       -4.44984061
 C            1.81188786        1.93451479       -3.56287799
 C            1.66647978        0.67451352       -4.12855285
 C           -1.31487114        1.82671646       -1.67884770
 C           -1.78825741       -0.10542310       -3.57690660
 C           -0.54230181        1.85828936       -2.84194667
 C           -0.79198149        0.91184001       -3.82905494
 C           -3.38521170        1.29948327       -0.58772614
 C           -4.38515175        0.28088039       -0.31216374
 C           -4.32303324       -0.95761907       -1.05295788
 C           -3.36995059       -1.04594749       -2.13350830
 C           -2.54762265        1.16635088       -1.69593198
 C           -2.74628886        0.10735627       -2.59544382
