   70
C70 / DATE: 7/ 1/2024 / Origin: Program Fullerene / C70 from database
 C            1.31395207        0.01764663        5.07228095
 C            0.55439744       -1.16570939        4.70355978
 C            1.46001478       -2.08684948        4.05871291
 C            2.62886809       -0.09310792        4.46557557
 C            2.74620182       -1.42437506        3.90278597
 C            2.81437170        1.04976056        3.59052988
 C            0.65084345        1.16713492        4.48262179
 C            1.58427524        1.82855298        3.59692735
 C           -0.62113017       -0.73166590        3.97001473
 C           -0.60274959        0.71753074        3.92261616
 C           -1.02197786       -1.41278134        2.81726176
 C            1.08253955       -2.61585908        2.76669838
 C           -0.19992963       -2.40761735        2.27069687
 C            3.15507539       -1.56618860        2.51316153
 C            2.19183229       -2.42701991        1.85334948
 C            3.48051804        0.87523430        2.38406078
 C            3.64402397       -0.46553147        1.82714454
 C            3.15409987        1.75804429        1.28108072
 C            1.10903311        2.34167227        2.39128911
 C            2.02168468        2.56456966        1.36071027
 C           -1.05982452        1.31215861        2.75859025
 C           -0.25896317        2.24780614        2.08999347
 C           -1.93726600       -0.77137778        1.96899238
 C           -2.01713168        0.62361371        2.02820579
 C           -2.39120430       -1.44701405        0.82646401
 C           -0.41479700       -2.75410117        0.94672479
 C           -1.68883009       -2.59022872        0.43295672
 C            1.88816225       -2.24091599        0.50513546
 C            0.66171067       -2.71148560        0.05607568
 C            3.42318081       -0.37849364        0.39242936
 C            3.40214722        1.02771252        0.05007340
 C            2.51614463       -1.23329728       -0.23275094
 C            2.71973500        1.42098852       -1.08940919
 C            1.57788758        3.16311646        0.19069481
 C            2.09719544        2.66533269       -1.07037193
 C           -0.74139956        2.81494290        0.90312854
 C            0.15592876        3.38665764        0.00742617
 C           -2.67938978        1.32053237        1.03629925
 C           -2.01706827        2.47321680        0.45476656
 C           -3.23323758       -0.78552937       -0.08402629
 C           -3.34531694        0.59615990       -0.02310023
 C           -3.59710303       -1.40578750       -1.27631342
 C           -1.93272896       -3.16393286       -0.80465518
 C           -3.07978567       -2.72458976       -1.55818975
 C            0.38798408       -2.66631466       -1.30458309
 C           -0.80692874       -3.24556803       -1.71654744
 C            1.96463323       -0.84417897       -1.46257670
 C            2.23096372        0.44104150       -1.95358771
 C            0.96404330       -1.63261678       -2.05604415
 C            1.65670670        0.85248405       -3.14970587
 C            1.12998550        2.98890377       -2.09915308
 C           -0.11539188        3.33626941       -1.42464690
 C            1.08038712        2.18836692       -3.22795129
 C           -2.31668877        2.48382422       -0.97042639
 C           -3.21193012        1.36985073       -1.24691099
 C           -1.32412374        2.81276776       -1.88579909
 C           -3.54695519       -0.63392409       -2.51293044
 C           -3.13348260        0.69785217       -2.46385730
 C           -2.72995361       -2.79031691       -2.96560800
 C           -1.29329012       -2.99763767       -3.05123549
 C           -3.01916481       -1.49680912       -3.55328273
 C            0.42961035       -1.26981494       -3.30544811
 C            0.78736466       -0.05187954       -3.87409459
 C           -0.72674474       -1.89027235       -3.78450172
 C           -1.83302122       -1.06517684       -4.25819213
 C           -0.18096136        2.08122095       -3.92838570
 C           -1.40557725        2.31031033       -3.18315887
 C           -2.31027899        1.20558726       -3.47473087
 C           -0.25013907        0.75076492       -4.49782381
 C           -1.62103652        0.29634048       -4.38903579
