   70
C70 / DATE: 7/ 1/2024 / Origin: Program Fullerene / C70 from database
 C            1.12354837        0.05284891        4.43863568
 C            2.44751960       -0.18681010        3.91077710
 C            2.50121997       -1.58354775        3.53011931
 C            0.30321280       -1.11211062        4.12941768
 C            1.13312459       -2.05467692        3.41760767
 C           -0.90541560       -0.63755474        3.49445981
 C            0.40320719        1.21479572        3.96765606
 C           -0.95822391        0.79547687        3.69885609
 C            1.00503544        2.08041719        3.06073079
 C            2.88701925        0.59177073        2.76623988
 C            2.07485767        1.61254073        2.28009264
 C            3.34115573       -1.68274399        2.35693885
 C            3.49942780       -0.33131406        1.82424896
 C            3.05516545       -2.69927453        1.46216047
 C            0.71164475       -2.55977087        2.18922147
 C            1.67622692       -3.17612265        1.39500312
 C           -1.27281264       -1.13569770        2.25090511
 C           -0.45922186       -2.06616777        1.58732591
 C           -2.22050166       -0.42140355        1.52210470
 C           -1.70474132        1.55713447        2.81024802
 C           -2.52568605        0.89867966        1.89602462
 C            0.19402820        3.08837925        2.55419236
 C           -1.23789793        2.83520292        2.49261255
 C            0.57639794        3.74490657        1.32216117
 C            2.12923017        1.91403075        0.91605471
 C            1.49730966        3.05695031        0.44512803
 C            3.34698004       -0.11943663        0.45094653
 C            2.54986914        0.94032864        0.00512305
 C            3.50985952       -2.53011249        0.10105298
 C            3.62276633       -1.17670290       -0.40977108
 C            1.37850768       -3.47827223        0.01010981
 C            2.58298508       -3.24332533       -0.75321890
 C           -0.77475968       -2.42674384        0.26943000
 C            0.18050883       -3.05091792       -0.54006189
 C           -2.68621631       -0.94924641        0.31695344
 C           -1.96226637       -1.96645516       -0.31049678
 C           -3.70261835       -0.29894284       -0.37726121
 C           -3.33366637        1.68091072        1.08165112
 C           -4.01339969        1.07396788       -0.04102081
 C           -1.76581338        3.53026640        1.32681466
 C           -0.63392165        4.03293187        0.56972555
 C           -2.82078264        2.96080728        0.62999936
 C            0.91119038        3.03462767       -0.88015696
 C           -0.43931963        3.56182711       -0.79149024
 C            2.08726006        0.98187409       -1.32142669
 C            1.13300382        1.93535495       -1.68825371
 C            3.06450410       -1.17745508       -1.74630599
 C            2.45536892       -2.48201984       -1.97518331
 C            2.39768003       -0.05032437       -2.21741677
 C            0.10028960       -2.90838790       -1.92655573
 C            1.23938869       -2.50225114       -2.64290578
 C           -2.24516246       -2.30204455       -1.63837179
 C           -1.16325997       -2.76715029       -2.49012675
 C           -3.71894010       -0.36550041       -1.82291170
 C           -3.10100723       -1.43837409       -2.44102767
 C           -3.71209359        1.88237006       -1.21527998
 C           -2.73346722        2.87041440       -0.81773751
 C           -1.47850574        2.88221441       -1.42948038
 C           -3.37747906        0.97059177       -2.28273553
 C            0.17979299        1.61484846       -2.64385037
 C           -1.16764223        1.92683088       -2.41046866
 C           -2.18823044        1.14430292       -2.98139574
 C            1.61249591       -0.21565840       -3.36193370
 C            1.09758090       -1.54508420       -3.63809446
 C            0.53666052        0.71940102       -3.63552615
 C           -1.30498249       -2.12107986       -3.78317322
 C           -2.40261160       -1.17939124       -3.68761881
 C           -1.86729878        0.15526472       -3.90680067
 C           -0.16896579       -1.40849835       -4.32145994
 C           -0.49911230        0.00830135       -4.35121036
