   70
C70 / DATE: 7/ 1/2024 / Origin: Program Fullerene / C70 from database
 C            1.32874985        0.21936537        4.85342435
 C            0.55464797       -1.00709317        4.76491992
 C            1.45339572       -2.05227712        4.34096170
 C            2.58066658       -0.00389096        4.15115918
 C            2.72642447       -1.43003702        3.99146221
 C            2.58206766        0.83035775        2.96122034
 C            0.60182523        1.24443552        4.13124309
 C            1.45672424        1.73983008        3.07165535
 C           -0.61717232       -0.73273430        3.95644468
 C           -0.68540348        0.69954445        3.74535649
 C           -0.94932255       -1.56304573        2.88857393
 C            1.06770714       -2.88875180        3.22006061
 C           -0.11145675       -2.63253255        2.51811900
 C            3.09651282       -1.93855813        2.68871278
 C            2.28098992       -3.11856729        2.46542183
 C            2.86898549        0.27187326        1.71134210
 C            3.30540914       -1.06027051        1.62266501
 C            2.43163829        0.95143150        0.56181764
 C            0.84091364        2.14670609        1.90079719
 C            1.53741161        2.01997841        0.70494310
 C           -1.23662987        1.14908145        2.55193827
 C           -0.55044845        2.13182441        1.84274266
 C           -1.89285355       -1.08950125        1.97703472
 C           -2.07023019        0.29278538        1.83265247
 C           -2.32607590       -1.94464741        0.98017001
 C           -0.27395549       -3.23638269        1.26465276
 C           -1.43057937       -2.99064477        0.53357514
 C            2.17090074       -3.59338950        1.16989790
 C            0.84413346       -3.72213186        0.58281876
 C            3.49025598       -1.63192156        0.37012297
 C            3.02606812       -2.99573305        0.16170482
 C            2.68105242        0.42494938       -0.71011316
 C            3.16857717       -0.87424542       -0.82245464
 C            2.01756524        0.96950070       -1.81516022
 C            0.97074942        2.60952131       -0.42361402
 C            1.41397988        2.21905171       -1.68483760
 C           -1.14234731        2.63143640        0.69399161
 C           -0.30816059        3.15270180       -0.28887107
 C           -2.70371303        0.81066095        0.69537121
 C           -2.37776418        2.11769490        0.31189418
 C           -2.98793911       -1.40269659       -0.18553720
 C           -3.30865043       -0.05509339       -0.22767145
 C           -1.33690768       -2.89249515       -0.91584749
 C           -2.37900331       -1.99644246       -1.36495232
 C            0.96290032       -3.47197553       -0.84802817
 C            2.31813412       -3.04167300       -1.10306322
 C            2.50717878       -1.77105632       -1.75287444
 C           -0.08356269       -2.82845793       -1.50360126
 C            1.57393524        0.09640533       -2.81603255
 C            1.47160851       -1.24312271       -2.49853396
 C            0.18579948       -1.79975743       -2.41973139
 C            0.73411796        0.56182013       -3.80851269
 C            0.86567505        2.82458213       -2.81509515
 C            0.56520820        1.98881088       -3.95905200
 C           -0.88513471        3.82700906       -1.35627172
 C           -0.24373573        3.74760704       -2.65221161
 C           -3.03948825        2.71647761       -0.75538250
 C           -2.31760335        3.69195251       -1.55880208
 C           -3.69355621        0.44029215       -1.46897938
 C           -3.78181695        1.87052852       -1.66135452
 C           -2.16687957       -1.18508464       -2.47383532
 C           -0.87807722       -1.10442611       -3.02381165
 C           -0.56772959       -0.07082277       -3.91677695
 C           -3.06719423       -0.13410010       -2.65102596
 C           -0.81176003        2.22975183       -4.34908667
 C           -1.26232566        3.41051904       -3.63645630
 C           -2.54481404        3.37834560       -2.96044055
 C           -3.34188628        2.16627473       -3.01512710
 C           -1.53700067        0.97376109       -4.20481036
 C           -2.77073111        0.94669175       -3.57091133
