   70
C70 / DATE: 7/ 1/2024 / Origin: Program Fullerene / C70 from database
 C            1.34578932        0.05120476        4.92722868
 C            0.57088018       -1.12438070        4.57264150
 C            1.45904185       -2.05253270        3.91675266
 C            2.62253177       -0.04210128        4.23863086
 C            2.71719687       -1.36121477        3.66173723
 C            2.72761152        1.09910540        3.35555582
 C            0.64758824        1.21622412        4.40771762
 C            1.56862310        1.94981494        3.57832914
 C           -0.60217923       -0.67928196        3.85097795
 C           -0.58058375        0.77284232        3.79881792
 C           -1.02330408       -1.36098153        2.71174691
 C            1.03179706       -2.64232249        2.66252169
 C           -0.24153570       -2.38033163        2.15002116
 C            2.99353412       -1.47894463        2.24154058
 C            2.15533695       -2.55554078        1.75463406
 C            3.17519616        0.93724206        2.04273425
 C            3.13600127       -0.33678986        1.44794947
 C            3.07734583        2.06285740        1.23163578
 C            1.08013364        2.64684385        2.48089829
 C            2.04490851        3.03061614        1.56207648
 C           -1.00215321        1.38229683        2.62159879
 C           -0.22740560        2.38517484        2.01884688
 C           -1.92521801       -0.70854678        1.88765057
 C           -1.90989237        0.68778106        1.83542884
 C           -2.47923020       -1.41023945        0.83241028
 C           -0.48083651       -2.74642108        0.81624461
 C           -1.68826746       -2.37759366        0.20457251
 C            1.87594092       -2.60278281        0.40346219
 C            0.62203907       -3.06625104        0.01917100
 C            2.92205824       -0.46990716        0.06708307
 C            2.53693661       -1.71439907       -0.44027599
 C            3.06568235        1.91145607       -0.20734941
 C            2.81185375        0.66142517       -0.74527551
 C            1.63715651        3.68297303        0.34618998
 C            2.36317320        3.05825185       -0.74989964
 C           -0.64544734        2.89523602        0.77376850
 C            0.23560996        3.65726830        0.00154425
 C           -2.49549402        1.33382454        0.75490826
 C           -1.81391926        2.40441600        0.16835592
 C           -3.51383805       -0.79494943        0.14597245
 C           -3.48850613        0.65271317        0.05029894
 C           -3.93753737       -1.32931683       -1.12500202
 C           -1.92598221       -2.73180946       -1.13384599
 C           -3.07188074       -2.27875628       -1.78791966
 C            0.43731980       -3.37909532       -1.31787904
 C           -0.87590995       -3.22052702       -1.90991355
 C            2.34583120       -1.85807907       -1.81090728
 C            1.41531169       -2.87737385       -2.26634103
 C            2.17398266        0.56759851       -1.98463555
 C            2.11719479       -0.66733068       -2.61023430
 C            1.41164099        2.84675970       -1.82475853
 C            0.19301884        3.53755471       -1.44212823
 C            1.31190342        1.58429568       -2.40594166
 C           -2.08790804        2.75926648       -1.15615932
 C           -0.99122246        3.13810039       -2.02621799
 C           -3.78446837        1.00738184       -1.32475148
 C           -4.15775506       -0.20909996       -2.02683867
 C           -2.98753698        1.94726589       -1.95841959
 C           -2.96309893       -1.86359639       -3.17562113
 C           -3.50847804       -0.52160662       -3.28475260
 C           -0.69439916       -2.72101578       -3.26863749
 C            0.69841726       -2.35048161       -3.41112078
 C            1.02742460       -0.94261976       -3.53040633
 C           -1.64973444       -1.86283347       -3.78819055
 C            0.15198527        1.26192255       -3.11957945
 C           -0.93772977        2.13113838       -3.06856823
 C           -2.27996257        1.59986431       -3.18896336
 C           -2.45075216        0.34942221       -3.76515338
 C           -0.00664072       -0.01896376       -3.65838389
 C           -1.27918964       -0.47211985       -4.02758346
