   70
C70 / DATE: 7/ 1/2024 / Origin: Program Fullerene / C70 from database
 C            1.48621670        0.05689416        5.23244064
 C            0.73730340       -1.13139546        4.87365048
 C            1.49268064       -1.86131793        3.86715631
 C            2.75313036        0.00917043        4.52472311
 C            2.74969946       -1.16993954        3.67562242
 C            2.81247965        1.16396701        3.64960587
 C            0.73684989        1.19957614        4.73650088
 C            1.55844454        1.88596874        3.76259179
 C           -0.61078669       -0.71076533        4.54011366
 C           -0.56887446        0.72811822        4.31713783
 C           -1.31576914       -1.48878117        3.63572727
 C            0.81056992       -2.33096335        2.74761661
 C           -0.57350214       -2.44335100        2.82799624
 C            1.40524098       -2.24272061        1.48237713
 C            3.09669237       -0.74934690        2.33381079
 C            3.20310339        0.69837209        2.32918526
 C            2.45464658       -1.34604492        1.25717605
 C            2.69388159        1.37343672        1.22423523
 C            0.97096286        2.31979339        2.58246944
 C            1.77871240        2.39935732        1.45538381
 C           -1.12551951        1.24072184        3.14588002
 C           -0.41028008        2.18833787        2.39783018
 C           -2.25612720       -0.83838208        2.74122052
 C           -2.16711070        0.53491340        2.54202871
 C           -1.33387921       -2.66324021        1.61598330
 C           -2.42354363       -1.70708882        1.58608185
 C            0.71747433       -2.72788146        0.36908896
 C           -0.66698598       -2.91028052        0.43321238
 C            1.28484690       -2.53361356       -0.88968317
 C            2.51660763       -0.70008054        0.02436941
 C            2.62506531        0.69228911        0.00567055
 C            2.02867908       -1.36736991       -1.09543412
 C            2.21535571        1.39787352       -1.12598948
 C            1.28938474        3.09589090        0.36731028
 C            1.71210840        2.68536367       -0.95469128
 C           -0.97321111        2.70701346        1.22495538
 C           -0.14189155        3.33705397        0.29978952
 C           -2.78749530        1.07308933        1.42493320
 C           -2.22523763        2.26192702        0.81483621
 C           -2.78709482       -1.14426434        0.36210366
 C           -3.20741466        0.18121433        0.35233713
 C           -1.39312683       -2.77678875       -0.74072813
 C           -2.31776000       -1.72467176       -0.82547168
 C            0.64897547       -3.13284092       -1.97151991
 C           -0.79371177       -3.25866182       -1.89271583
 C            0.98028800       -2.69198528       -3.30904706
 C            1.93726331       -0.68232628       -2.31116308
 C            1.94950044        0.71357572       -2.31369568
 C            1.56220672       -1.37488936       -3.46111840
 C            1.39941880        1.41184846       -3.39187275
 C            0.71933937        3.19250013       -1.87800830
 C           -0.50885013        3.37537334       -1.11108051
 C            0.65154657        2.63331287       -3.14073270
 C           -2.55914929        2.22493686       -0.60162997
 C           -3.16982695        0.93413219       -0.88348813
 C           -1.69586439        2.77993881       -1.54150028
 C           -2.52731072       -1.06911257       -2.05127064
 C           -2.85413332        0.29016623       -2.07177362
 C           -1.34860993       -2.89330406       -3.17429812
 C           -0.23857178       -2.74262961       -4.09866974
 C           -2.16253799       -1.69813569       -3.24182085
 C            0.81792442       -0.68810355       -4.50494659
 C            0.70930919        0.69234084       -4.44916041
 C           -0.38836953       -1.45980364       -4.75512248
 C           -1.66813463       -0.89924899       -4.35279960
 C           -0.65495780        2.47024774       -3.74172243
 C           -1.80696990        2.35890690       -2.86599981
 C           -2.44815865        1.08171447       -3.14318910
 C           -0.61126934        1.28914977       -4.58487233
 C           -1.78387238        0.48084296       -4.28793589
