   70
C70 / DATE: 7/ 1/2024 / Origin: Program Fullerene / C70 from database
 C            1.22490895       -0.08564336        4.45159308
 C            2.49200937       -0.35213576        3.81289148
 C            2.43096191       -1.69975570        3.26986751
 C            0.38736366       -1.26378843        4.27082671
 C            1.04688565       -2.11538376        3.30847309
 C           -0.94608856       -0.79298054        3.97187369
 C            0.44682262        1.04934307        3.99905247
 C           -0.93444854        0.64928773        4.16158586
 C            0.81801060        1.72085610        2.83256654
 C            2.92492051        0.52043152        2.74047630
 C            2.11689116        1.57456563        2.31918656
 C            3.09499405       -1.68039830        1.98257572
 C            3.55413156       -0.32062360        1.73773796
 C            2.53327767       -2.37850499        0.92175540
 C            0.41633665       -2.39760809        2.10172827
 C            1.19806171       -2.79770933        1.01511711
 C           -1.62918290       -1.31384315        2.87484234
 C           -0.92259801       -2.02743956        1.89399936
 C           -2.83125988       -0.69839348        2.53440785
 C           -1.91234941        1.39125666        3.52512366
 C           -3.04517612        0.66818770        2.98116750
 C           -0.17391705        2.35921330        2.07362067
 C           -1.49613802        2.34975744        2.51141438
 C            0.10894084        2.80841098        0.78466587
 C            2.44885505        2.18673189        1.11714477
 C            1.43529092        2.92180492        0.38862232
 C            3.62574147        0.13426383        0.42093567
 C            3.24693373        1.44889855        0.14460557
 C            3.08401568       -2.13722727       -0.33005128
 C            3.61277905       -0.81044038       -0.60598676
 C            2.41840755       -2.61844563       -1.52522868
 C            0.55948633       -3.33127047       -0.09794464
 C            1.19852130       -3.26678272       -1.40161941
 C           -1.51563607       -2.26930999        0.64893752
 C           -0.85600730       -3.06680552       -0.27784117
 C           -3.33522608       -0.79723426        1.17560207
 C           -2.59011265       -1.48843649        0.22623552
 C           -3.54863290        1.42944110        1.85762335
 C           -2.56150865        2.44396697        1.52898806
 C           -3.92899562        0.48556782        0.82630451
 C           -0.91714617        2.93583457       -0.16051728
 C           -2.23701458        2.63742320        0.18973131
 C           -0.60025003        3.14912617       -1.50239552
 C            1.77636456        2.85661481       -1.02057385
 C            2.76353233        1.80404945       -1.18226366
 C            0.76869245        2.98252236       -1.95860646
 C            3.16690452       -0.43256993       -1.93734014
 C            2.60620247       -1.61784631       -2.56463699
 C            2.56451573        0.80652573       -2.13265362
 C            1.64627796       -1.46354127       -3.55283888
 C            0.16345015       -3.04842680       -2.39742763
 C           -1.09672101       -2.85117658       -1.69335825
 C            0.44468900       -2.28518956       -3.52394204
 C           -2.74676767       -1.18601423       -1.13200736
 C           -1.96448216       -1.83649078       -2.08998640
 C           -3.84876257        0.90885270       -0.48800238
 C           -3.10411395        2.12501802       -0.77773930
 C           -3.46636869       -0.05105696       -1.50184198
 C           -1.47323273        2.62034468       -2.53685279
 C           -2.68123360        2.04680258       -2.16714386
 C           -3.03165381        0.71811528       -2.65197567
 C            0.74486659        2.07847559       -3.09493611
 C            1.57189354        0.95430181       -3.10730521
 C            1.24864788       -0.12070656       -3.93476812
 C           -0.63888146        1.96742004       -3.53437161
 C           -0.62571384       -1.51507641       -4.12855550
 C           -1.83997821       -1.28667098       -3.36744356
 C           -2.23062362        0.09398783       -3.59507520
 C           -0.08799657       -0.21365583       -4.49419988
 C           -1.07236676        0.79118296       -4.13384885
