   70
C70 / DATE: 7/ 1/2024 / Origin: Program Fullerene / C70 from database
 C            1.08392650        0.00353494        5.34075795
 C            0.42281611       -1.17643885        4.80744449
 C            1.43642266       -2.01943052        4.22528924
 C            2.45045636        0.00743359        4.84298540
 C            2.67072117       -1.24676043        4.15730881
 C            2.65194922        1.23970380        4.11016810
 C            0.41395222        1.17216979        4.79696307
 C            1.41684702        2.00786210        4.18306566
 C           -0.66551270       -0.73685250        3.95838183
 C           -0.68525611        0.71439957        3.97121852
 C           -0.90944512       -1.37615154        2.74198249
 C            1.19808931       -2.56019766        2.90103175
 C           -0.02210076       -2.34765219        2.25443636
 C            3.09123599       -1.23563717        2.76492431
 C            2.40795685       -2.34660228        2.13639572
 C            3.04655297        1.18577926        2.70882597
 C            3.19941649       -0.03606630        2.05459338
 C            1.15186850        2.51964167        2.85371358
 C            2.31590726        2.23873961        2.03901908
 C           -0.96943744        1.36118545        2.77100580
 C           -0.10122967        2.34017792        2.26676449
 C           -1.72017669       -0.71034046        1.82822909
 C           -1.77619519        0.68187693        1.86541385
 C           -2.07010549       -1.35304339        0.64896990
 C           -0.08003292       -2.67782294        0.89399731
 C           -1.22270532       -2.34943597        0.15737178
 C            2.28420356       -2.33787422        0.76178311
 C            1.12718980       -2.88426877        0.21990920
 C            3.06142062       -0.07741030        0.66193465
 C            2.91943840       -1.32371280        0.05187530
 C            2.11108217        2.14585060        0.67382321
 C            2.66222105        1.07457644       -0.03359917
 C           -0.20905778        2.66827690        0.91214545
 C            0.96820689        2.74635619        0.16507079
 C           -2.19694178        1.35079891        0.72726895
 C           -1.40503650        2.39271544        0.24841853
 C           -2.95381381       -0.71191994       -0.21597307
 C           -3.04073075        0.68516726       -0.15388892
 C           -3.34507895       -1.39732859       -1.35907571
 C           -1.30681976       -2.73389264       -1.18758398
 C           -2.40191414       -2.32378502       -1.94585890
 C            1.11771877       -3.12267344       -1.14555046
 C           -0.13326111       -3.04198912       -1.87230450
 C            2.90404144       -1.39883757       -1.33401690
 C            2.13927685       -2.47229314       -1.94695189
 C            2.44801973        1.01180482       -1.41926196
 C            2.64988696       -0.19014275       -2.09527756
 C            0.88853338        2.89711620       -1.20693735
 C            1.67769813        2.00155882       -2.03456657
 C           -1.55849191        2.80971993       -1.07608229
 C           -0.41221252        3.05385904       -1.83110956
 C           -3.55165744        1.41570629       -1.22105752
 C           -2.74586116        2.50471734       -1.73902086
 C           -3.99995147       -0.69537486       -2.44825217
 C           -4.16903164        0.73445233       -2.34114680
 C           -2.15316421       -1.84714960       -3.29527260
 C           -3.23784046       -0.96267894       -3.66010553
 C            0.12954039       -2.37943008       -3.14295363
 C            1.50952418       -1.95324013       -3.14632422
 C            1.78073871       -0.53792525       -3.21515640
 C           -0.84508839       -1.52541704       -3.63995063
 C            0.86930544        1.65941305       -3.19526312
 C           -0.30359760        2.51385351       -3.17914908
 C            0.74751624        0.32388828       -3.56111909
 C           -0.51160112       -0.18555364       -3.91868729
 C           -2.72192558        2.37483238       -3.18561618
 C           -3.65667907        1.33078121       -3.56316246
 C           -2.90672091        0.30544114       -4.26826021
 C           -1.45298872        2.08742777       -3.82255076
 C           -1.51201717        0.71451152       -4.30139978
