   70
C70 / DATE: 7/ 1/2024 / Origin: Program Fullerene / C70 from database
 C            1.61969897        0.03559664        4.61820377
 C            0.79995473       -1.13680136        4.37646290
 C            1.42005542       -1.91201725        3.31624225
 C            2.69689462        0.02987371        3.64370797
 C            2.58765903       -1.17736161        2.86253595
 C            2.66698160        1.28995323        2.94171996
 C            0.79847315        1.20559171        4.35873712
 C            1.50110078        2.02847368        3.40640021
 C           -0.56408709       -0.68926156        4.18944402
 C           -0.52830890        0.75540998        4.00953438
 C           -1.37891472       -1.43521327        3.35441867
 C            0.60678910       -2.51869471        2.35716938
 C           -0.77983376       -2.46450620        2.51300964
 C            1.13624632       -2.76649497        1.08624805
 C            2.81712258       -1.12026003        1.49791915
 C            2.36545853       -2.19051232        0.74437701
 C            2.95466149        1.31862020        1.57748277
 C            3.00382588        0.11382840        0.85266125
 C            2.62976848        2.49564541        0.90577362
 C            0.77779126        2.73584193        2.45750365
 C            1.53939436        3.29344158        1.44207588
 C           -1.16280795        1.31372780        2.90043441
 C           -0.55221667        2.36004738        2.18027330
 C           -2.35945808       -0.74307486        2.54132299
 C           -2.24992095        0.63184187        2.35191509
 C           -1.63727989       -2.62478576        1.34872200
 C           -2.65393807       -1.58980477        1.39748016
 C            0.29426537       -3.24224882        0.07660716
 C           -1.06755829       -2.94074317        0.12576270
 C            0.85460980       -3.67516305       -1.12073211
 C            2.82530037       -2.28157786       -0.55760441
 C            2.17791965       -3.20168391       -1.46694237
 C            2.95096821        0.15008589       -0.55010106
 C            3.05992615       -1.03782793       -1.26442605
 C            2.48027907        2.48227642       -0.53657905
 C            2.39692178        1.25870137       -1.18301535
 C            0.87871141        3.94725528        0.34242746
 C            1.54668171        3.53036719       -0.87998694
 C           -1.22252512        2.92109038        1.07775441
 C           -0.53776756        3.72393246        0.16982005
 C           -2.96041438        1.20439441        1.30970616
 C           -2.45403934        2.40962717        0.68539616
 C           -3.06953711       -0.99112718        0.21351403
 C           -3.47678943        0.34149509        0.25926556
 C           -1.74370974       -2.58312719       -1.04216313
 C           -2.69573873       -1.55655267       -1.00898655
 C            0.05511824       -3.63223330       -2.32983368
 C           -1.27002845       -3.04133564       -2.26762837
 C            2.08907691       -2.54380977       -2.75823048
 C            2.39409598       -1.14007055       -2.55051079
 C            0.81334261       -2.89744007       -3.33479637
 C            1.51564632        1.08025501       -2.26402080
 C            1.46234444       -0.16427237       -2.90623102
 C            0.52494817        3.24150425       -1.85639057
 C           -0.76511855        3.53743409       -1.25332174
 C            0.63459610        2.10364469       -2.64426389
 C           -2.79075643        2.35441049       -0.73352515
 C           -3.54167277        1.12348628       -0.96109209
 C           -1.87350567        2.81377134       -1.68371066
 C           -3.09085983       -0.93724912       -2.19650778
 C           -3.44608980        0.47296560       -2.18072678
 C           -1.39805002       -2.19095751       -3.43436659
 C           -0.04284207       -1.83544911       -3.81632851
 C            0.35850980       -0.50303655       -3.70455406
 C           -2.35743796       -1.19244493       -3.42705687
 C           -0.47414751        1.78568417       -3.41341560
 C           -1.78774166        2.17903061       -2.92244103
 C           -2.72114834        1.12053527       -3.25355299
 C           -0.58731564        0.46942884       -4.00508182
 C           -1.99357787        0.09786952       -3.98390455
