   70
C70 / DATE: 7/ 1/2024 / Origin: Program Fullerene / C70 from database
 C            1.22289892        0.05894813        4.33524232
 C            2.50962231       -0.22545628        3.74580802
 C            2.57293163       -1.65705053        3.51910792
 C            0.42386527       -1.15990108        4.27311532
 C            1.21899986       -2.17233076        3.61286019
 C           -0.85820239       -0.80202508        3.70289866
 C            0.41792892        1.11772422        3.76169824
 C           -0.94932535        0.64117917        3.79416388
 C            0.85558490        1.80018235        2.62349172
 C            2.85758350        0.42560137        2.49950745
 C            1.99547928        1.36357468        1.93733503
 C            3.29918970       -1.87595991        2.28349199
 C            3.45377213       -0.57697812        1.63341744
 C            2.93520877       -2.96681803        1.50860049
 C            0.69480183       -2.85391583        2.51710813
 C            1.59258907       -3.50922880        1.67202440
 C           -1.27778557       -1.42539889        2.53109757
 C           -0.59649875       -2.55433411        2.05806758
 C           -2.21463551       -0.77717859        1.71566373
 C           -1.86986922        1.28989513        2.99553694
 C           -2.64091026        0.50581016        2.04506733
 C           -0.07603468        2.58854619        1.94164863
 C           -1.42809356        2.46360490        2.27208900
 C            0.26786498        3.17250113        0.71849776
 C            2.10776875        1.63224878        0.57862457
 C            1.39539179        2.69758959        0.03525006
 C            3.27402088       -0.46719973        0.25336056
 C            2.68738708        0.68494854       -0.27423712
 C            3.20952867       -2.91474260        0.08840933
 C            3.32909717       -1.61392625       -0.54039256
 C            1.15102389       -4.00713757        0.38077143
 C            2.15756231       -3.64324844       -0.59919697
 C           -1.09969716       -3.22669468        0.94833590
 C           -0.18401543       -3.88887659        0.03300852
 C           -2.51982650       -1.29062427        0.45634350
 C           -2.13093377       -2.59039436        0.14576877
 C           -2.97886294       -0.44108984       -0.55906001
 C           -3.04790462        1.40846557        0.98007239
 C           -2.43178209        2.69763791        1.25384902
 C           -3.08920276        0.93681229       -0.32922951
 C           -0.71194319        3.90774944        0.04506106
 C           -2.10031314        3.51397732        0.19090764
 C           -0.52618898        4.28818773       -1.34187707
 C            1.58857376        2.98510059       -1.31489077
 C            0.65512594        3.82974691       -2.03077228
 C            2.36732867        0.70676355       -1.63012036
 C            1.95638531        1.89891623       -2.19965771
 C            2.56461044       -1.65688354       -1.77813470
 C            1.75884111       -2.86113962       -1.75775273
 C            1.99335474       -0.48145766       -2.24291429
 C           -0.52843159       -3.44869436       -1.30914686
 C           -1.89204158       -2.95564955       -1.24106447
 C            0.41188307       -2.75789180       -2.07839904
 C           -3.10965359       -0.94062226       -1.85192295
 C           -2.33279496       -2.10219303       -2.23600658
 C           -3.04450278       -0.02540728       -2.97063133
 C           -2.97923557        1.84933808       -1.38982246
 C           -2.57040505        3.15703959       -1.13303850
 C           -1.68881484        3.81868142       -2.08200525
 C           -2.91023707        1.39007329       -2.70197847
 C            0.23285831        3.10695834       -3.22158037
 C            0.96608547        1.85049254       -3.25955585
 C           -1.21879006        3.07607257       -3.23982000
 C           -1.85288368        1.88559480       -3.56851480
 C            0.78172280       -0.52964220       -2.93978567
 C           -0.01295302       -1.68642809       -2.86539264
 C           -1.36105398       -1.62929292       -3.20257434
 C           -1.90428450       -0.42426584       -3.78689337
 C            0.27635414        0.65975897       -3.48699668
 C           -1.04511726        0.73035703       -3.92393679
