   70
C70 / DATE: 7/ 1/2024 / Origin: Program Fullerene / C70 from database
 C            1.63095759       -0.02903138        4.60375411
 C            0.83357139       -1.23335144        4.46907943
 C            1.27974775       -1.94556923        3.28261604
 C            2.62200622       -0.04577766        3.54892241
 C            2.48087196       -1.28764636        2.80793333
 C            2.50447373        1.19392494        2.80142724
 C            0.75544072        1.10374363        4.35919366
 C            1.25140045        1.81120181        3.19486724
 C           -0.55547631       -0.83859636        4.54089292
 C           -0.60343893        0.60613191        4.33063274
 C           -1.47849645       -1.62514666        3.87114396
 C            0.32686654       -2.37392341        2.35917600
 C           -1.00657777       -2.45556783        2.76590602
 C            0.63888041       -2.36673328        0.99154008
 C            2.71518215       -1.23010017        1.44420930
 C            1.91732113       -1.97958034        0.57674382
 C            2.81279456        1.14321978        1.44906795
 C            3.28875477       -0.06468835        0.95332623
 C            2.12872913        1.97967153        0.56641689
 C            0.35396757        2.17669262        2.19826934
 C            0.84020943        2.41612329        0.90877901
 C           -1.48938506        1.11914896        3.38503114
 C           -1.02012203        2.00249490        2.40166848
 C           -2.70949482       -0.99393483        3.44034000
 C           -2.68305413        0.43065553        3.17378865
 C           -2.05470805       -2.49610185        1.76632475
 C           -3.14431047       -1.65568133        2.22629364
 C           -0.37439444       -2.53328913        0.04245949
 C           -1.71274508       -2.43144779        0.42648214
 C           -0.06470016       -2.51365690       -1.31989884
 C            2.22961588       -1.94122459       -0.78718413
 C            1.23782665       -2.22592371       -1.73723394
 C            3.75214226       -0.08837190       -0.34484687
 C            3.36912998       -1.22051526       -1.15916976
 C            2.54346866        1.99040168       -0.76894032
 C            3.52996698        1.08698756       -1.16319332
 C            1.75210809        2.60680857       -1.73304507
 C           -0.01440593        2.94191930       -0.06397323
 C            0.41835019        3.04799535       -1.37929090
 C           -1.90413431        2.48010986        1.44011808
 C           -1.38356320        2.96332068        0.17260895
 C           -3.44513792        0.65619365        1.95866578
 C           -3.65113479       -0.63612183        1.32217624
 C           -3.12794988        1.74562567        1.16499747
 C           -2.62455998       -1.86547280       -0.45628716
 C           -3.37931948       -0.76561303       -0.03664343
 C           -1.11126838       -2.49089929       -2.24925342
 C           -2.43257900       -2.07997475       -1.80911524
 C           -0.89988815       -1.92747535       -3.57310670
 C            1.48235033       -2.02566358       -3.10000243
 C            0.39005734       -1.61523407       -3.95741696
 C            3.57257337       -0.81197032       -2.53327495
 C            3.60175064        0.64482664       -2.54582161
 C            2.62667619       -1.24709219       -3.52823134
 C            1.69554641        2.07548328       -3.08958296
 C            0.68385407       -0.24879862       -4.36671351
 C            2.59988980        1.10152453       -3.48794994
 C            2.11462422       -0.06267894       -4.20380640
 C           -0.48570820        2.66201178       -2.45476182
 C            0.29288692        1.95791792       -3.46236100
 C           -0.19776629        0.77448613       -4.01316890
 C           -2.28793463        2.52696242       -0.88096055
 C           -3.25114880        1.62299324       -0.27738575
 C           -3.44691380        0.37080467       -0.84903077
 C           -1.77133882        2.22851146       -2.14034418
 C           -2.91763359       -1.07899382       -2.73550289
 C           -1.93333108       -0.93266263       -3.79008109
 C           -1.54493842        0.46531040       -3.85453503
 C           -3.22135244        0.23753490       -2.21364619
 C           -2.34508269        1.19377239       -2.87909190
