   70
C70 / DATE: 7/ 1/2024 / Origin: Program Fullerene / C70 from database
 C            1.22809345       -0.20946187        4.27777411
 C            2.47599795       -0.54014065        3.63186200
 C            2.41290528       -1.93312697        3.21722915
 C            0.40209235       -1.40668446        4.29841854
 C            1.10155514       -2.44637558        3.56920893
 C           -0.93482271       -1.02612393        3.87742015
 C            0.42726144        0.86674298        3.72833457
 C           -0.94964062        0.41982134        3.70720669
 C            0.89150388        1.61178485        2.65020668
 C            2.88673436        0.23798104        2.48103431
 C            2.14005311        1.33805747        2.06740541
 C            2.85237303       -2.00119884        1.83223614
 C            3.34843382       -0.68779259        1.46807096
 C            2.09707065       -2.70965440        0.90312355
 C            0.40359411       -3.19672009        2.63454786
 C            1.00855612       -3.46833229        1.33975895
 C           -1.63071642       -1.81880605        2.96663443
 C           -1.01372643       -2.94062588        2.40794967
 C           -2.72696880       -1.25835253        2.31755290
 C           -1.81831525        0.97209898        2.77190818
 C           -2.88048829        0.18690918        2.32980729
 C           -0.02998895        2.39016845        1.95190929
 C           -1.38925062        2.04952512        1.98807355
 C            0.44758152        3.27864805        0.99406539
 C            2.42828523        1.87217956        0.81074926
 C            1.74291507        3.01196616        0.40241607
 C            3.26236903       -0.29088440        0.14218214
 C            3.06497771        1.06258819       -0.13684623
 C            2.21175888       -2.38069820       -0.44986151
 C            2.92948569       -1.24007145       -0.82465251
 C            1.38204991       -3.00830781       -1.37769534
 C           -0.07390658       -3.77405883        0.42011458
 C           -1.31006722       -3.31501010        1.03070786
 C            0.12312737       -3.57546813       -0.93384452
 C           -3.08712083       -1.71944293        0.98646736
 C           -2.21052749       -2.54976478        0.29392855
 C           -3.61839107        0.56526821        1.13647625
 C           -3.74934339       -0.62172960        0.30385555
 C           -2.27331487        2.60551919        1.06384174
 C           -3.36610515        1.79785626        0.55115238
 C           -0.43170443        3.77197353       -0.05102019
 C           -1.77116706        3.41533919       -0.03230835
 C            1.67605395        3.36075653       -1.00738877
 C            0.30826186        3.75825033       -1.30362676
 C            3.20252512        1.50095118       -1.45032313
 C            2.39513445        2.60993594       -1.92674964
 C            2.99261601       -0.87880366       -2.16865376
 C            3.25630858        0.50924454       -2.50791129
 C            1.14098635       -2.38633443       -2.66766208
 C            1.97325347       -1.36330098       -3.08317050
 C           -0.93011576       -2.95725606       -1.71971320
 C           -2.04020389       -2.39966043       -1.08851053
 C           -0.29694812       -2.23098286       -2.81156433
 C           -3.63685891       -0.51702518       -1.07351331
 C           -2.78414712       -1.45079146       -1.78770495
 C           -3.37219378        1.92596295       -0.89760296
 C           -2.42156678        2.96708070       -1.25472884
 C           -3.48876233        0.79079895       -1.69294158
 C           -0.30660625        3.31264940       -2.46878073
 C           -1.68946567        2.86267133       -2.43253752
 C            1.77109169        2.20325798       -3.17796237
 C            2.30737846        0.90296622       -3.53684588
 C            1.38858330       -0.20516091       -3.73314568
 C            0.41825495        2.44349506       -3.38154679
 C           -0.83254827       -1.00825285       -3.21306186
 C           -2.16082228       -0.73511888       -2.89124440
 C           -2.64211475        0.63500590       -2.86553581
 C           -1.78958788        1.65971146       -3.24611383
 C            0.01642790        0.02224415       -3.63551879
 C           -0.45814321        1.33210971       -3.72334250
