   70
C70 / DATE: 7/ 1/2024 / Origin: Program Fullerene / C70 from database
 C            1.64342128       -0.25833860        4.92111680
 C            0.77956581       -1.42420183        4.93395298
 C            1.26832941       -2.34744567        3.92622817
 C            2.64341135       -0.45661752        3.88708370
 C            2.39569211       -1.73831436        3.25307835
 C            2.65104781        0.72643788        3.04539101
 C            0.83945690        0.88265021        4.52547444
 C            1.54217348        1.57119680        3.45560560
 C           -0.54960764       -1.00201124        4.52265165
 C           -0.50999293        0.41881155        4.25741113
 C            0.13857925       -2.74063467        3.11599199
 C           -0.98027593       -1.87784724        3.45282379
 C            0.34429884       -2.99683303        1.77112599
 C            2.44305773       -1.79609093        1.86362937
 C            1.56267752       -2.64204270        1.17581707
 C            2.86928546        0.56296079        1.68299669
 C            3.01943599       -0.72937154        1.17842508
 C            2.43800123        1.56860806        0.81973181
 C            0.78306499        2.17309779        2.45749016
 C            1.37439027        2.38976286        1.21298346
 C           -1.13223003        0.89528291        3.11134108
 C           -0.60218629        2.03382641        2.51294552
 C           -1.72181236       -1.34435899        2.39877634
 C           -1.92578763        0.03835862        2.33547386
 C           -0.78143121       -3.02448441        0.96828348
 C           -1.78522473       -2.07941299        1.21571212
 C           -0.62560980       -3.55066800       -0.29942193
 C            1.69183153       -2.76584330       -0.21768860
 C            0.65324569       -3.34777843       -0.95115796
 C            3.27688678       -0.88497018       -0.17384932
 C            2.61142928       -1.96008313       -0.89044907
 C            2.80336084        1.49930098       -0.52338526
 C            3.27266628        0.28861454       -1.03110260
 C            2.34742403        2.47540931       -1.40102290
 C            0.66406308        3.11527702        0.25425220
 C            1.19766600        3.27292048       -1.01942750
 C           -1.36841670        2.67089073        1.55388242
 C           -0.69887351        3.32488973        0.44291221
 C           -2.58841347        0.57610714        1.22655566
 C           -2.50313579        1.95185980        1.01115603
 C           -2.56571223       -1.59686081        0.16422465
 C           -2.97623945       -0.26084772        0.17344318
 C           -1.67262711       -3.35560916       -1.27557253
 C           -2.67370552       -2.34694248       -1.00512933
 C            0.37770139       -2.87256190       -2.30001301
 C           -1.04003104       -3.02032738       -2.54107198
 C            2.29100708       -1.46814157       -2.22362847
 C            2.87166446       -0.14593640       -2.36086770
 C            1.03738725       -1.74070294       -2.76128112
 C            2.22065205        2.15537381       -2.81261558
 C            2.27996088        0.76456031       -3.21979603
 C            0.30214693        3.34637773       -2.16592385
 C            0.96587867        2.70816784       -3.28862904
 C           -1.59721068        3.27523741       -0.70063472
 C           -2.76837118        2.50046963       -0.30512938
 C           -1.06390652        3.14548866       -1.98260301
 C           -3.56939910        0.29194494       -0.96646511
 C           -3.41410214        1.71149659       -1.23980490
 C           -2.93075643       -1.67604907       -2.26303160
 C           -1.76419652       -1.90428640       -3.10473082
 C           -3.49381275       -0.41192379       -2.23778295
 C            0.33204881       -0.73204149       -3.43785358
 C            1.00450355        0.42744730       -3.83162820
 C            0.26270745        1.66550760       -4.01050799
 C           -1.06118893       -0.80859867       -3.59859468
 C           -1.79871391        2.49814322       -2.97763230
 C           -3.06035622        1.86269172       -2.63722893
 C           -3.07137397        0.54395439       -3.24569836
 C           -1.11884846        1.63097137       -3.93180446
 C           -1.78657131        0.34408243       -3.89480321
