   70
C70 / DATE: 7/ 1/2024 / Origin: Program Fullerene / C70 from database
 C            1.15906589        0.11040342        4.55008229
 C            2.47500053       -0.16371119        4.01650573
 C            2.50610032       -1.57350582        3.66486988
 C            0.36226088       -1.09915861        4.39957236
 C            1.12974164       -2.02130870        3.59150482
 C           -0.94945565       -0.70143432        3.92732616
 C            0.39536418        1.19560528        3.97088861
 C           -0.98303814        0.75266591        3.88293028
 C            0.91911687        1.92505963        2.90878952
 C            2.91281489        0.57336600        2.84485662
 C            2.01256958        1.41769718        2.19497473
 C            3.33181306       -1.69772574        2.48789701
 C            3.69628243       -0.35246651        2.06101372
 C            2.78678202       -2.37135688        1.32727775
 C            0.59946360       -2.42998440        2.36806786
 C            1.44961944       -2.76189829        1.30015989
 C           -1.54165623       -1.40487490        2.88682343
 C           -0.78041747       -2.32740673        2.15555858
 C           -2.66625118       -0.83107886        2.30491806
 C           -1.82302829        1.38052166        2.96291267
 C           -2.80289513        0.61762155        2.32985699
 C            0.05835882        2.80965351        2.28148446
 C           -1.37496649        2.55357483        2.35635778
 C            0.35208738        3.24511411        0.93458786
 C            2.08256981        1.58142285        0.79825955
 C            1.25017037        2.51075237        0.16729003
 C            3.57128309       -0.31373715        0.62057923
 C            3.30622317       -1.66853339        0.17845788
 C            2.85732202        0.71579992        0.01418718
 C            2.64399093       -1.81829199       -1.02513243
 C            0.89723208       -3.07911273        0.05610084
 C            1.59705788       -2.73711831       -1.10860985
 C           -1.33739404       -2.94917400        1.04317717
 C           -0.45703265       -3.39158730       -0.02129156
 C           -3.15439693       -1.31156070        1.02526527
 C           -2.52705183       -2.38646788        0.42349543
 C           -3.34099199        1.03392462        1.04352101
 C           -3.50737250       -0.15445450        0.22089728
 C           -1.96563219        3.00686197        1.10577110
 C           -0.90656071        3.66893423        0.35283053
 C           -2.89990830        2.20860221        0.44416722
 C           -1.00429643        3.74948477       -1.02408252
 C            1.10786267        2.49437169       -1.22435339
 C            0.10530727        3.26241985       -1.82611987
 C            2.53464397        0.55427270       -1.33332275
 C            2.63053968       -0.72934706       -1.88563424
 C            1.79581638        1.54453799       -1.98195920
 C            2.25984770       -0.95784733       -3.20180875
 C            0.99915363       -2.93709990       -2.35331413
 C            1.44445652       -2.12613641       -3.47903038
 C           -1.17053286       -3.21941826       -1.27694556
 C           -2.30214905       -2.35264463       -1.00888311
 C           -0.44849715       -3.02176299       -2.43847835
 C           -3.15332202       -0.09752039       -1.12588107
 C           -2.42729177       -1.14584910       -1.69956666
 C           -3.05979644        2.34354226       -0.93296004
 C           -2.22627755        3.28794201       -1.65173179
 C           -3.17961545        1.14254843       -1.74954598
 C           -0.44245291        2.85499771       -3.10999260
 C           -1.87355651        2.69303122       -2.92735940
 C           -2.42716633        1.34848575       -2.97149300
 C            1.50386659        1.41081627       -3.33849001
 C            1.74391220        0.13757774       -3.99166199
 C            0.22575510        1.88314853       -3.83227916
 C            0.26051503       -1.67246944       -4.18961441
 C           -0.88147261       -1.98007796       -3.35271656
 C           -1.69209656       -0.94597620       -2.87643879
 C           -1.63060526        0.32373653       -3.46959022
 C            0.48290755       -0.29811714       -4.57766501
 C           -0.50969658        0.69172106       -4.21726400
