   70
C70 / DATE: 7/ 1/2024 / Origin: Program Fullerene / C70 from database
 C            1.61588533       -0.02988306        4.68371604
 C            0.79226324       -1.22262519        4.67590672
 C            1.41578487       -2.18817984        3.78630439
 C            2.62644755       -0.18441189        3.65069327
 C            2.45205800       -1.48918472        3.04280661
 C            2.56408337        0.98371548        2.79092877
 C            0.77159231        1.08659680        4.30195338
 C            1.44555644        1.79520878        3.23686103
 C           -0.58131976       -0.81946716        4.41615282
 C           -0.56133470        0.58352773        4.03597763
 C           -1.40033851       -1.69250617        3.71813590
 C            0.59701059       -3.08215070        3.11370620
 C           -0.84357697       -2.96191859        3.27822961
 C            0.85346298       -3.35976397        1.70947126
 C            2.47770385       -1.57316238        1.65400060
 C            1.78235292       -2.59844774        1.00295841
 C            2.73868699        0.81666637        1.41631628
 C            2.93384232       -0.47473644        0.91976849
 C            2.24395640        1.80929575        0.55786301
 C            0.67753833        2.39016134        2.25274488
 C            1.32452040        2.72586170        1.07479877
 C           -1.19636909        0.99780284        2.86525646
 C           -0.69185385        2.10775364        2.18277713
 C           -2.22377281       -1.17828144        2.63544630
 C           -2.05876370        0.13129332        2.19182362
 C           -1.46646527       -3.30605376        2.01480661
 C           -0.41749770       -3.65704141        1.07656265
 C           -2.37103017       -2.23262463        1.64893511
 C           -0.58293844       -3.28568519       -0.24920268
 C            1.72062563       -2.60025895       -0.39282327
 C            0.55551665       -3.05649268       -1.02034772
 C            3.17535280       -0.63807210       -0.43476249
 C            2.62042801       -1.80331740       -1.09556557
 C            2.35989832        1.63953482       -0.82812993
 C            2.98685054        0.49680866       -1.31851846
 C            1.66057472        2.47746278       -1.70419546
 C            0.65142309        3.58238423        0.22390766
 C            0.94556093        3.55218617       -1.19111971
 C           -1.40307466        2.61246546        1.09149735
 C           -0.78906128        3.63046664        0.36044626
 C           -2.46708644        0.46062418        0.90004604
 C           -2.34025945        1.77851497        0.46729788
 C           -2.44516179       -1.87863368        0.30882473
 C           -1.77985911       -2.67168706       -0.62217445
 C           -2.73353014       -0.55684731       -0.02734610
 C           -2.00897510       -2.43131619       -1.96864966
 C            0.39757500       -2.90904002       -2.39589722
 C           -0.94636790       -2.72735840       -2.91279540
 C            2.35693132       -1.44494261       -2.47884677
 C            2.62379107       -0.02204583       -2.62549245
 C            1.27750744       -2.01931475       -3.13348515
 C            1.41712932        2.07122596       -3.01722029
 C            1.82855775        0.75011087       -3.45880035
 C            0.12946253        2.35447758       -3.63482545
 C           -0.24843909        4.01443204       -1.88282237
 C           -1.33340808        4.05221091       -0.91270298
 C           -0.71480753        3.28630901       -3.04848335
 C           -2.90298113        2.12960758       -0.75703872
 C           -2.44739746        3.31535964       -1.45861091
 C           -2.09982005        2.92405583       -2.81527453
 C           -2.95937980       -0.24038573       -1.37167409
 C           -2.61220323       -1.16677033       -2.35575180
 C           -3.11118035        1.09100634       -1.74662784
 C           -2.50259170        1.54103263       -2.99047651
 C           -0.91211998       -1.66529706       -3.90269366
 C            0.45883782       -1.21536620       -4.03015161
 C            0.70238402        0.14554111       -4.15612073
 C           -0.41123162        1.08628944       -4.10385337
 C           -1.93863980       -0.69854495       -3.55778241
 C           -1.67831619        0.66182495       -3.68665837
