   70
C70 / DATE: 7/ 1/2024 / Origin: Program Fullerene / C70 from database
 C            1.39802645       -0.07440045        4.10449294
 C            2.46916764       -0.24130338        3.13765981
 C            2.38027922       -1.59354578        2.61018850
 C            0.53500474       -1.24206790        4.02076792
 C            1.12096486       -2.16068473        3.06927320
 C           -0.81756053       -0.78280475        3.78944023
 C            0.55968013        1.10547236        4.02937686
 C           -0.82397575        0.65960847        3.96344785
 C            0.97717600        2.17484443        3.24792182
 C            2.79520855        0.80279210        2.27692388
 C            2.15656177        2.03610483        2.40298120
 C            3.47902729        0.50834451        1.10299392
 C            2.80420342       -1.85003789        1.30681712
 C            3.50413299       -0.86355265        0.61676773
 C            2.19629870       -2.88131803        0.59475838
 C            0.30278124       -2.79745440        2.14600715
 C            0.91996797       -3.40441192        1.05741875
 C           -1.55634252       -1.34619437        2.75198725
 C           -1.05726652       -2.47030918        2.07379810
 C           -2.65847366       -0.64400329        2.24838625
 C           -1.75811681        1.41202251        3.26562202
 C           -2.74836542        0.72852196        2.45166664
 C           -0.00271507        2.96775951        2.52214424
 C           -1.33977267        2.60458502        2.54385311
 C            1.95895442        2.87030303        1.22725505
 C            0.59866747        3.38551830        1.26882661
 C            3.36054647        1.39204840       -0.04697433
 C            2.50176671        2.48591173        0.00430526
 C            3.46746921       -0.82413839       -0.83818187
 C            3.41976620        0.57201806       -1.24756880
 C            2.15964641       -2.84191188       -0.85960167
 C            2.73235613       -1.77279207       -1.54450271
 C            0.13875341       -3.78694948       -0.10611186
 C            0.86092666       -3.34091915       -1.28506453
 C           -1.85436993       -3.11811176        1.13340264
 C           -1.23868212       -3.65419979       -0.06780044
 C           -3.42381357       -1.19154497        1.22811807
 C           -3.10985575       -2.51631704        0.73822027
 C           -3.76606672       -0.35804834        0.08521851
 C           -3.07266940        1.58516314        1.32286777
 C           -2.11584907        2.68190236        1.31851371
 C           -3.45782494        1.00434340        0.11436117
 C           -0.15261133        3.40485997        0.09609831
 C           -1.50772552        3.04685373        0.12055162
 C            1.89860616        2.93518003       -1.16717998
 C            0.53864826        3.45003536       -1.11228493
 C            2.67812960        0.92862654       -2.36793970
 C            2.03562764        2.16608056       -2.39476665
 C            2.24371392       -1.44672235       -2.80910304
 C            2.30778445       -0.06779655       -3.26642791
 C            0.19055909       -2.67676090       -2.30674625
 C            0.96210031       -1.98988783       -3.23422667
 C           -1.91333080       -3.05473511       -1.20571488
 C           -3.14650928       -2.47692000       -0.71583799
 C           -3.48291891       -1.12800695       -1.11689491
 C           -1.16369278       -2.35589186       -2.14859568
 C           -2.76915934       -0.52501253       -2.14326733
 C           -1.69476500       -1.19743623       -2.73901351
 C           -3.13321065        1.65023538       -1.07879750
 C           -2.17588632        2.74643305       -1.06327292
 C           -2.86730649        0.85637673       -2.26719684
 C           -0.12563698        3.09988800       -2.35450577
 C            0.81539293        2.34873068       -3.17051530
 C           -1.46259329        2.73661170       -2.32851539
 C           -1.91836060        1.58427773       -3.09179246
 C            1.18954691        0.14972333       -4.16765371
 C            0.33024361       -1.02193266       -4.10391905
 C           -1.00834820       -0.57770904       -3.78031102
 C            0.35764373        1.32265392       -3.98669224
 C           -1.02155471        0.87200278       -3.87545601
