   70
C70 / DATE: 7/ 1/2024 / Origin: Program Fullerene / C70 from database
 C            1.55043834       -0.06803148        5.02667450
 C            0.77370343       -1.29197603        4.94937707
 C            1.65582063       -2.31912678        4.44064551
 C            2.72855808       -0.25049937        4.19523598
 C            2.81940002       -1.65430232        3.86618134
 C            2.64873404        0.70589191        3.11087284
 C            0.75764423        0.99462389        4.43418651
 C            1.53642842        1.59807623        3.37612706
 C           -0.45542190       -0.99369386        4.22700358
 C           -0.53130256        0.44952588        4.07511258
 C           -0.86850497       -1.80415694        3.16198584
 C            1.13956275       -3.22464009        3.43903339
 C           -0.17939555       -2.98271697        2.87509193
 C            2.89404578       -2.03806277        2.46715202
 C            2.07744691       -3.22008739        2.32775898
 C            2.84318132        0.29402112        1.79534067
 C            2.81978715       -1.06755258        1.46599422
 C            2.51357138        1.20246108        0.80064740
 C            0.85860158        2.10611776        2.27405641
 C            1.55190202        2.17962168        1.07502890
 C           -1.14515677        0.94117516        2.93558456
 C           -0.52797393        1.96585661        2.20633608
 C           -1.71203682       -1.25594670        2.18508183
 C           -2.02500670        0.10157826        2.27019772
 C           -1.91579707       -1.93756639        0.97387119
 C           -0.09888582       -3.41846356        1.50005613
 C            1.29915554       -3.36068609        1.11717926
 C           -1.00912484       -2.92643364        0.58338903
 C            2.41739421       -1.44822992        0.17400239
 C            1.61874211       -2.58735847        0.00495099
 C            2.71724377        0.82968635       -0.51703480
 C            2.47418690       -0.50347105       -0.85865861
 C            2.58797615        1.82366933       -1.47523492
 C            0.95303400        2.84532577        0.01043599
 C            1.65424216        2.89678426       -1.19240760
 C           -1.18625797        2.44878821        1.07048456
 C           -0.43810416        2.99515653        0.01779531
 C           -2.85042556        0.67630187        1.32238005
 C           -2.47645539        1.98309835        0.81779806
 C           -2.75335105       -1.38022982       -0.00744989
 C           -3.29816939       -0.11644727        0.19570120
 C           -2.71792238       -1.89284390       -1.30773415
 C           -0.62055127       -2.95137703       -0.74477657
 C            0.70137857       -2.60083828       -1.04250055
 C           -1.61133176       -2.75112744       -1.68554332
 C            1.89699228       -0.80858967       -2.09964482
 C            0.97838228       -1.85518416       -2.18596040
 C            2.43632141        1.44817245       -2.86211216
 C            2.01102526        0.09745170       -3.15396808
 C            0.97245388        3.23821526       -2.42672419
 C            1.48565248        2.36425314       -3.47123989
 C           -1.09685328        3.44412341       -1.12904582
 C           -0.38091207        3.53711699       -2.39172031
 C           -3.05010829        2.11788248       -0.50624349
 C           -3.47142748        0.78885810       -0.93393631
 C           -2.44039370        2.96594596       -1.41486111
 C           -2.99749184       -1.01812282       -2.43885346
 C           -3.18590764        0.34348300       -2.22352753
 C           -1.22988349       -2.43712642       -3.04441721
 C            0.10709465       -1.93323992       -3.27173142
 C           -2.16988359       -1.45442482       -3.55126520
 C            0.95631321        0.18110342       -4.15131941
 C            0.55746479        1.57698391       -4.26518550
 C           -0.00462448       -0.81686055       -4.19335228
 C           -1.41479337       -0.46334655       -4.29399563
 C           -1.24888631        3.02076693       -3.43786311
 C           -2.50632276        2.63107005       -2.82319163
 C           -2.78504030        1.25700899       -3.20121182
 C           -0.79171244        1.91493227       -4.26541230
 C           -1.79846282        0.86763276       -4.20062760
