   70
C70 / DATE: 7/ 1/2024 / Origin: Program Fullerene / C70 from database
 C            1.46459116       -0.00151106        4.54645171
 C            0.68501110       -1.16345157        4.16332307
 C            1.44535891       -1.91375681        3.19238352
 C            2.63545221        0.04501613        3.68778648
 C            2.62243668       -1.12697292        2.84838718
 C            2.65592538        1.33148218        3.04201922
 C            0.66405201        1.17870607        4.26607720
 C            1.44568345        2.04783018        3.42040601
 C           -0.62640417       -0.70875152        3.77563804
 C           -0.62483359        0.74386195        3.77886556
 C           -1.26131620       -1.33719782        2.71941040
 C            0.77029494       -2.55965690        2.16097337
 C           -0.60184277       -2.32720666        1.97348668
 C            1.53604619       -2.93924209        1.07009921
 C            2.96664293       -1.01051505        1.50360958
 C            2.67103599       -2.10670154        0.70293950
 C            3.07003233        1.42357327        1.71885475
 C            3.08684093        0.26353630        0.91365472
 C            2.85078371        2.65826383        1.12424122
 C            0.80259390        2.79085669        2.43603601
 C            1.62516575        3.36028249        1.46528748
 C           -1.19395798        1.40356348        2.68931076
 C           -0.53674928        2.50579657        2.11932635
 C           -2.30575109       -0.65441299        2.12296003
 C           -2.18497112        0.73310749        1.95858007
 C           -3.15760794       -1.38949406        1.32130082
 C           -1.25197419       -2.85113754        0.84173877
 C           -2.60757863       -2.55784184        0.65915337
 C            0.88436678       -3.37205233       -0.14517283
 C           -0.50119949       -3.36129010       -0.22683883
 C            2.67645907       -1.97504658       -0.73616155
 C            1.66027709       -2.87103900       -1.26832720
 C            3.12733038        0.37915490       -0.49226417
 C            2.84382160       -0.72445080       -1.30404930
 C            3.08793832        2.82164945       -0.28625170
 C            3.22554826        1.63365023       -1.09406795
 C            1.05869982        3.89197471        0.23940050
 C            1.99120734        3.60616630       -0.83607320
 C           -1.13027456        3.15350249        1.03980507
 C           -0.29807974        3.74560216        0.00682980
 C           -2.83248081        1.38679946        0.90049658
 C           -2.26710439        2.54239014        0.37759484
 C           -4.01411784       -0.69618897        0.39135637
 C           -3.69469639        0.67591273        0.07011290
 C           -3.20878765       -2.63731344       -0.66190753
 C           -4.04283899       -1.45891122       -0.84357210
 C           -1.06571064       -3.47007201       -1.49640330
 C           -2.44693233       -3.08782885       -1.72646191
 C            0.99969856       -2.54548397       -2.45022336
 C           -0.28272498       -3.05342082       -2.65164345
 C            2.41721100       -0.53253126       -2.61659784
 C            1.42622122       -1.43688016       -3.18583078
 C            2.49438421        1.88550568       -2.32166878
 C            1.51306223        2.91193318       -2.01835912
 C            2.09772841        0.80500770       -3.08396281
 C           -0.75100679        3.22540572       -1.27583991
 C           -2.04493788        2.61530320       -1.05961267
 C            0.15430353        2.61678763       -2.13800705
 C           -3.49312228        0.76106033       -1.36856054
 C           -3.75801467       -0.54754254       -1.94068330
 C           -2.44245115        1.54150100       -1.84685714
 C           -2.50464041       -2.36631527       -2.98831042
 C           -1.17758394       -2.38165073       -3.57592412
 C           -2.98222953       -0.99273327       -2.99921349
 C            0.45823497       -0.61613050       -3.90725170
 C            0.72816248        0.76252607       -3.55580116
 C           -0.24416282        1.50744020       -2.88902599
 C           -1.54918584        1.00403081       -2.78166304
 C           -0.85777693       -1.03185417       -3.99162248
 C           -1.89955584       -0.15259436       -3.48368643
