   70
C70 / DATE: 7/ 1/2024 / Origin: Program Fullerene / C70 from database
 C            1.27571413        0.09380748        4.47166593
 C            2.52846393       -0.15833230        3.79780898
 C            2.55297255       -1.56587139        3.44549783
 C            0.45415780       -1.10553186        4.35646205
 C            1.19626638       -2.07011504        3.57349722
 C           -0.85473937       -0.69018731        3.89056765
 C            0.46249700        1.20303909        4.02204374
 C           -0.91428656        0.74601594        4.07453716
 C            0.87005784        1.97682523        2.93317633
 C            2.83159909        0.59186100        2.59452137
 C            1.92118056        1.53600381        2.11556751
 C            3.21237050       -1.68386613        2.15792228
 C            3.44231911       -0.33582923        1.65704938
 C            2.74946506       -2.64672840        1.27454690
 C            0.59766384       -2.65536247        2.46140214
 C            1.42884905       -3.21699374        1.49315601
 C           -1.36138269       -1.23784945        2.71556951
 C           -0.72920872       -2.34461674        2.13559937
 C           -2.33867370       -0.53378948        2.00069469
 C           -1.86339865        1.46438618        3.36872341
 C           -2.66886816        0.76755058        2.37690095
 C           -0.04695741        2.89188911        2.42806721
 C           -1.44905679        2.72160667        2.77372166
 C            0.01630051        3.27667683        1.03077890
 C            1.93141548        1.84292294        0.74932207
 C            0.99086838        2.72682468        0.21069830
 C            3.31029030       -0.08525976        0.29581110
 C            2.79893143        1.15182849       -0.10249368
 C            2.88476184       -2.40839412       -0.14933318
 C            3.29620191       -1.16068362       -0.60149673
 C            0.88792215       -3.59235656        0.19887723
 C            1.76990579       -3.05385729       -0.82363929
 C           -1.32022841       -2.95833198        1.03511812
 C           -0.47872274       -3.54391810        0.00237496
 C           -2.76965461       -1.00444566        0.75918243
 C           -2.42542445       -2.29453433        0.36836475
 C           -3.26752569       -0.10280244       -0.18824894
 C           -3.01727656        1.72325012        1.34171036
 C           -2.23592484        2.92271723        1.57286382
 C           -1.34128943        3.36341238        0.52144364
 C           -3.13747195        1.26805233        0.03647967
 C           -1.58119610        2.91846807       -0.77170673
 C           -2.67922985        2.08445522       -0.99906660
 C            0.78804768        2.75724605       -1.16927593
 C           -0.51342140        2.88721081       -1.66726616
 C            2.86894046        1.50904091       -1.44414519
 C            1.81797253        2.33848149       -2.00508847
 C            3.14240853       -0.90123916       -1.95794179
 C            3.17463261        0.47363303       -2.40860560
 C            1.24254565       -2.44966376       -1.96617619
 C            2.06612446       -1.57869615       -2.67055558
 C           -0.98279984       -3.09026986       -1.27862093
 C           -2.33338272       -2.61770141       -1.04582307
 C           -0.14432646       -2.37944341       -2.13965979
 C           -3.54006413       -0.54661326       -1.48085316
 C           -2.89415047       -1.75312869       -1.96584167
 C           -3.00912385        1.74883945       -2.30673974
 C           -3.51469457        0.41430716       -2.57162806
 C           -0.77428206        2.61575823       -3.00721841
 C           -2.07765752        2.08247496       -3.36882150
 C            1.51646117        1.84246904       -3.34013044
 C            2.24371448        0.59934714       -3.51365459
 C            1.48542750       -0.63822888       -3.60732630
 C            0.20807008        1.89194919       -3.79025555
 C           -0.70782275       -1.47217687       -3.04876621
 C           -2.10032521       -1.36530084       -3.11653106
 C           -2.71193415       -0.16030956       -3.64084301
 C           -1.85633894        0.88049809       -4.16021846
 C            0.10391741       -0.55976869       -3.73969316
 C           -0.42759643        0.64934900       -4.19405945
