   70
C70 / DATE: 7/ 1/2024 / Origin: Program Fullerene / C70 from database
 C            1.47408758        0.15296929        5.01210827
 C            0.67621034       -1.05692802        4.96352637
 C            1.47323091       -2.07449430        4.30759487
 C            2.62439880       -0.03931285        4.14050050
 C            2.64996882       -1.42451492        3.74441812
 C            2.56515461        0.97145697        3.10399065
 C            0.67647932        1.22775559        4.45109691
 C            1.47539714        1.86882317        3.43484920
 C           -0.62217891       -0.71724825        4.40372182
 C           -0.60632537        0.69278741        4.04568509
 C           -1.24491606       -1.61443088        3.54928546
 C            0.86158083       -2.86343003        3.25342172
 C           -0.50391753       -2.75927800        3.02746870
 C            2.68655507       -1.73720151        2.33015445
 C            1.75675421       -2.82850919        2.11247954
 C            2.74072969        0.62955675        1.75619503
 C            2.75656171       -0.72121962        1.36871601
 C            2.39533806        1.60017011        0.80838805
 C            0.82591944        2.45131717        2.36570451
 C            1.59138758        2.66300908        1.23711172
 C           -1.12316642        1.10189761        2.81405342
 C           -0.53479200        2.19410792        2.16597442
 C           -2.05826336       -1.09649591        2.46533650
 C           -1.93198642        0.23380169        2.07593452
 C           -1.00711488       -3.02889644        1.69231434
 C           -2.10615061       -2.12019231        1.44245356
 C            1.24174519       -2.97594904        0.83409629
 C           -0.11519213       -3.26992377        0.65120125
 C            2.44425863       -1.06476105        0.04716476
 C            1.92020965       -2.33747231       -0.19639667
 C            2.42779852        1.27106335       -0.54971288
 C            2.30864983       -0.06567039       -0.92278591
 C            2.18250721        2.26712018       -1.49300167
 C            1.06432695        3.53692120        0.30806951
 C            1.57655824        3.50062545       -1.04040307
 C           -1.11590626        2.67735021        0.98816655
 C           -0.38278398        3.60062104        0.23653831
 C           -2.29863943        0.58987785        0.77856590
 C           -2.08405722        1.89836416        0.34996097
 C           -2.33132775       -1.73944095        0.13103820
 C           -2.63021017       -0.40632407       -0.15098298
 C           -0.61473063       -3.23410567       -0.65339641
 C           -1.81239937       -2.53722024       -0.88298140
 C            1.60144589       -2.70990355       -1.49001301
 C            0.31804028       -3.34894252       -1.68208549
 C            1.86849209       -0.39871652       -2.20984729
 C            1.74798207       -1.73830824       -2.55159656
 C            1.56276565        1.91583263       -2.76037230
 C            1.30263303        0.57915772       -3.03439731
 C            0.47991338        3.82514176       -1.93268575
 C           -0.74275793        3.87234324       -1.14297125
 C            0.55394117        2.92116826       -3.06548800
 C           -2.59935838        2.30022707       -0.87836678
 C           -1.89648733        3.30591794       -1.66112233
 C           -2.97837232       -0.05532681       -1.45887228
 C           -3.10289819        1.29074217       -1.79436803
 C           -2.25697724       -2.29877580       -2.17921342
 C           -2.85229696       -1.00517101       -2.48007924
 C           -0.07937516       -3.11916243       -3.05442697
 C            0.82628979       -2.11859172       -3.60332710
 C           -1.43195019       -2.68132536       -3.30884667
 C            0.27671768        0.24802951       -3.93078128
 C           -2.37863091       -0.59443152       -3.79857607
 C            0.02165098       -1.08805687       -4.22496663
 C           -1.35767880       -1.54206342       -4.20307417
 C           -0.62696820        2.52673200       -3.67730828
 C           -1.89356880        2.86637348       -3.04562641
 C           -2.76509957        1.71039421       -3.14236953
 C           -0.74130950        1.16970989       -4.17794950
 C           -2.12789237        0.75042940       -4.01889287
