   70
C70 / DATE: 7/ 1/2024 / Origin: Program Fullerene / C70 from database
 C            1.31233753       -0.09303731        4.91763754
 C            2.59009187       -0.44370291        4.34106019
 C            2.39851378       -1.68512532        3.59470427
 C            0.46096124       -1.25740341        4.77359501
 C            0.99306461       -2.01984695        3.66161223
 C           -0.88950804       -0.76236749        4.67307651
 C            0.57528829        1.02197676        4.34451411
 C           -0.81708920        0.68719192        4.50692521
 C            1.01181101        1.58432987        3.14336731
 C            3.20220622        0.50742582        3.43952212
 C            2.37545840        1.55892687        2.86467556
 C            3.00360575       -1.50881818        2.29374286
 C            3.72886230       -0.25825908        2.33037034
 C            2.26742744       -1.78626900        1.14645518
 C            0.25566181       -2.10362059        2.47790191
 C            0.91715607       -2.14312151        1.24006875
 C           -1.71551057       -1.24396695        3.58948232
 C           -1.13363483       -1.93039823        2.51905735
 C           -1.74276102        1.03156683        3.45044706
 C           -2.58695560       -0.13388055        3.28435272
 C            0.09903653        1.85321383        2.10653791
 C           -1.27987873        1.67448614        2.30217392
 C            0.56751312        2.27226123        0.85057209
 C            2.82444328        1.73432195        1.50094460
 C            3.64094935        0.58538813        1.16121233
 C            1.92942941        2.17181794        0.53365661
 C            2.72708689       -1.25997028       -0.05576351
 C            3.36442868       -0.01171135       -0.05471208
 C            2.13120184       -1.68512140       -1.23733784
 C            0.16941758       -2.26842415        0.06204654
 C            0.79992649       -2.12345158       -1.18865384
 C           -1.86768594       -2.01506661        1.33648414
 C           -1.22355570       -2.34939864        0.14432290
 C           -3.32735157       -0.21922712        2.12772939
 C           -3.10964245       -1.37581219        1.28375341
 C           -2.13739800        1.70614784        1.19962699
 C           -3.28380701        0.90654745        1.22101209
 C           -0.34516357        2.55872012       -0.17313893
 C           -1.69271102        2.22488601       -0.01617885
 C            0.14148812        2.90975190       -1.43517020
 C            2.29062150        1.96877798       -0.79989925
 C            3.07338407        0.84812779       -1.10317441
 C            1.50543147        2.55995292       -1.77947377
 C            2.62422080       -1.12349547       -2.40906956
 C            3.00639939        0.27152282       -2.36186922
 C            1.93885723       -1.35405349       -3.65544457
 C            0.05859571       -2.27156554       -2.37486004
 C            0.61922618       -1.93486227       -3.60786159
 C           -1.97988197       -2.44918291       -1.01872705
 C           -1.32382317       -2.40191164       -2.30797747
 C           -3.68766015       -1.03727373       -0.00347069
 C           -3.83402147        0.41431052       -0.02754380
 C           -3.21727208       -1.69356081       -1.12751330
 C           -2.53183567        2.14740219       -1.13185726
 C           -3.54671910        1.11097005       -1.18792222
 C           -0.67821842        2.71202354       -2.61962871
 C           -1.98861133        2.29084066       -2.46967496
 C            1.51518352        2.04251721       -3.13827126
 C            2.31731117        0.95066146       -3.43901288
 C            1.83957505       -0.07636653       -4.34818338
 C            0.15684148        2.12828449       -3.65844287
 C           -0.19165437       -1.21352744       -4.57453217
 C            0.50047968        0.02467973       -4.89278519
 C           -0.35284028        1.12312589       -4.47774863
 C           -2.16139584       -1.61515306       -3.20594336
 C           -3.19920176       -0.99819893       -2.40202466
 C           -3.36104563        0.38357820       -2.43227777
 C           -2.49892808        1.19166170       -3.27977805
 C           -1.55697197       -0.88177402       -4.21733602
 C           -1.67076032        0.57152887       -4.20938211
