   70
C70 / DATE: 7/ 1/2024 / Origin: Program Fullerene / C70 from database
 C            1.31818174       -0.13171536        4.59902726
 C            2.56820670       -0.26640932        3.87671099
 C            2.56043576       -1.57019948        3.24155556
 C            0.46972304       -1.26027326        4.23537154
 C            1.21336980       -2.09601405        3.32313456
 C           -0.80263413       -0.72957569        3.79966210
 C            0.53141368        1.07391066        4.42277838
 C           -0.84775476        0.64939868        4.24742437
 C            1.02936178        2.11179956        3.63861008
 C            2.90997617        0.71515259        2.86078740
 C            2.17819282        1.89004879        2.76783004
 C            3.13806438       -1.42382000        1.91936677
 C            3.25646189       -0.00357313        1.64418552
 C            2.64349877       -2.22039044        0.89882222
 C            0.62348161       -2.51138024        2.13727605
 C            1.47606930       -2.95331725        1.13528137
 C           -1.28027971       -1.04688988        2.52647228
 C           -0.64041695       -2.02863396        1.76330199
 C           -2.22646880       -0.20704375        1.93104393
 C           -1.74281814        1.50204984        3.62778105
 C           -2.62070750        0.94549713        2.61703855
 C            0.09647199        2.96558282        2.92340321
 C           -1.26717677        2.77690550        3.10804433
 C            1.84633551        2.41019945        1.45415655
 C            0.61319763        3.16417067        1.57306701
 C            2.82587459        0.46502428        0.39948542
 C            2.04718897        1.62398330        0.32546880
 C            2.89204218       -1.80328765       -0.40139470
 C            2.80974063       -0.43047533       -0.67608210
 C            2.66811028       -2.73076955       -1.40845586
 C            0.90367992       -3.63742223        0.07477043
 C            1.66097674       -3.74193827       -1.15846127
 C           -1.11791135       -2.31632066        0.48042003
 C           -0.46589832       -3.29706238       -0.27214471
 C           -2.55619178       -0.36590675        0.57410355
 C           -1.95439387       -1.39819869       -0.16371477
 C           -3.31196523        0.62425311       -0.08080682
 C           -3.12461031        2.07272665        1.87323276
 C           -2.16842456        3.15733759        2.03848476
 C           -3.33853705        1.90327514        0.46029240
 C           -0.26611171        3.20129513        0.49242404
 C           -1.61590884        3.43676632        0.72518438
 C           -2.58141269        2.93419397       -0.22898711
 C            1.27850314        1.86206806       -0.81141071
 C            0.11221942        2.63566714       -0.72718396
 C            2.34134461        0.00989397       -1.91913676
 C            1.58000387        1.17940306       -1.98666902
 C            2.50841986       -2.27663398       -2.77121622
 C            2.36964047       -0.85461062       -3.01074568
 C            0.71838807       -3.70601440       -2.25770203
 C           -0.55918426       -3.26927197       -1.72276354
 C            1.32558788       -2.92981120       -3.31644271
 C           -2.11499297       -1.46212171       -1.55371204
 C           -1.22996776       -2.21383579       -2.32794672
 C           -3.44226623        0.57511341       -1.46205040
 C           -2.98440824       -0.58855272       -2.18277044
 C           -2.17017934        2.64063942       -1.52076831
 C           -0.79476911        2.64266122       -1.79271421
 C           -2.97696569        1.73541335       -2.20161364
 C            0.89676791        1.50622900       -3.15663668
 C           -0.34493937        2.25588920       -3.05535543
 C            1.36707782       -0.71661482       -4.04791446
 C            0.53090000       -1.90000894       -3.94733975
 C           -0.80099828       -1.73312902       -3.57723441
 C            0.73455243        0.50595166       -4.20254174
 C           -2.67501408       -0.15602927       -3.53179085
 C           -2.59460340        1.29746446       -3.52279174
 C           -1.28469499        1.67662144       -4.00174743
 C           -1.46838680       -0.65858683       -4.15494370
 C           -0.67246838        0.48925204       -4.56280976
