   70
C70 / DATE: 7/ 1/2024 / Origin: Program Fullerene / C70 from database
 C            1.53213115       -0.04165186        5.10920749
 C            0.74449014       -1.25588415        5.01423086
 C            1.64701626       -2.29420890        4.57297834
 C            2.71291377       -0.22801552        4.28101155
 C            2.81974895       -1.63805394        4.00021533
 C            2.61465563        0.69376565        3.16628305
 C            0.75367690        1.02462444        4.51410791
 C            1.56361473        1.64206182        3.48164329
 C           -0.43652920       -0.96063669        4.21073938
 C           -0.52925196        0.48218675        4.10636046
 C           -0.73666570       -1.74264398        3.09116130
 C            1.16273856       -3.23431609        3.58902096
 C           -0.10871227       -2.97373884        2.92927755
 C            2.92073693       -2.06574378        2.61808210
 C            2.16506846       -3.29106711        2.54168823
 C            2.70965648        0.23327724        1.85157119
 C            2.78399713       -1.14122170        1.57416563
 C            2.30168558        1.09806469        0.84039711
 C            0.88582196        2.21836618        2.41825489
 C            1.48756752        2.19114987        1.16415093
 C           -1.09426738        1.02597813        2.96530274
 C           -0.50235076        2.17506037        2.45317800
 C           -1.39948854       -1.15950931        2.00057881
 C           -1.76481726        0.18876728        2.07213594
 C           -1.50596735       -1.84743208        0.77798855
 C            0.03491728       -3.50397739        1.59601964
 C            1.46236073       -3.54685376        1.31508876
 C           -0.78374817       -3.03378334        0.57707218
 C            2.42256984       -1.60845960        0.29429047
 C            1.88181825       -2.90024426        0.16546167
 C            2.38620007        0.67699427       -0.48027929
 C            2.28561654       -0.68665333       -0.76174536
 C            2.15873970        1.61263015       -1.47920079
 C            0.87679577        2.91564774        0.13889925
 C            1.35896571        2.78113743       -1.15719852
 C           -1.18598588        2.84271562        1.45682224
 C           -0.42479887        3.37172356        0.33788011
 C           -2.41826094        0.78915768        0.99581485
 C           -2.33653954        2.17689579        0.88615525
 C           -2.10194735       -1.20521865       -0.32292995
 C           -2.72093192        0.03517471       -0.13955308
 C           -1.91740812       -1.70648152       -1.62369009
 C           -0.32716450       -3.30705912       -0.70314384
 C            1.10141470       -3.17312988       -0.93879396
 C           -0.99928617       -2.72443483       -1.83534408
 C            1.80674961       -1.10978204       -2.01410812
 C            1.25842867       -2.37988659       -2.12762957
 C            0.01656831       -2.53951499       -2.85340022
 C            1.78618108        1.16902639       -2.80613947
 C            1.51870487       -0.17830561       -3.01969834
 C            0.48727872        3.05504185       -2.29149261
 C            0.91689109        2.18936071       -3.37883533
 C           -1.34361342        3.46505622       -0.78615337
 C           -2.58591975        2.81083993       -0.38883745
 C           -0.87084650        3.30301270       -2.08581455
 C           -3.35651150        0.65683949       -1.21842306
 C           -3.30036139        2.10784415       -1.33910405
 C           -2.30552958       -0.94748596       -2.72980894
 C           -3.19623417        0.10367703       -2.54999674
 C           -0.25184399       -1.64983360       -3.86987993
 C            0.67591700       -0.55180865       -4.07078232
 C           -1.57432540       -1.06024971       -3.91883343
 C            0.01751465        1.84628158       -4.37804566
 C           -0.05250338        0.46581882       -4.81408916
 C           -1.45498179        0.07226286       -4.81871852
 C           -1.78781434        3.01747069       -3.09655302
 C           -3.06701603        2.43156775       -2.73204893
 C           -3.22355854        1.21075020       -3.49563867
 C           -1.34085411        2.35588895       -4.30960299
 C           -2.25311700        1.25116809       -4.57172259
