   70
C70 / DATE: 7/ 1/2024 / Origin: Program Fullerene / C70 from database
 C            1.48921630       -0.03008934        4.81124285
 C            0.65456017       -1.19533547        4.58673550
 C            1.18190773       -1.91910778        3.44394522
 C            2.52312273       -0.02316942        3.79164812
 C            2.34185748       -1.18824113        2.96165844
 C            2.49944137        1.26779476        3.14719633
 C            0.66106493        1.14547726        4.60294521
 C            1.32290852        1.97583462        3.62901179
 C           -0.71799013       -0.74196380        4.52890565
 C           -0.68186420        0.70015657        4.31105171
 C           -1.61006254       -1.49276236        3.78384473
 C            0.28607740       -2.44622928        2.50948942
 C           -1.07920107       -2.43988284        2.80630463
 C            0.69946810       -2.58407658        1.17712885
 C            2.49783859       -1.06322244        1.59228011
 C            1.93368004       -2.04979906        0.80141638
 C            2.78531123        1.35292821        1.78547161
 C            2.78877711        0.18198024        1.00996462
 C            2.45266428        2.55486870        1.17015413
 C            0.56346882        2.65146539        2.68651749
 C            1.30231214        3.27626795        1.69334508
 C           -1.36326141        1.24657119        3.21893548
 C           -0.72170556        2.16605704        2.36946010
 C           -2.70910149       -0.79370672        3.15010294
 C           -2.51450441        0.59619235        2.77794263
 C           -2.04308729       -2.53599791        1.72649005
 C           -3.06396133       -1.52914384        1.95374516
 C           -0.23441047       -2.92491333        0.18981607
 C           -1.59201106       -2.70478363        0.42684781
 C            0.18565505       -3.10626993       -1.13410797
 C            2.34014017       -2.11961651       -0.51616131
 C            1.49762363       -2.79008056       -1.48196827
 C            2.80704658        0.27333324       -0.39062488
 C            2.84652265       -0.90444812       -1.12843873
 C            2.39618069        2.63186996       -0.27643068
 C            2.40979931        1.45679054       -1.01884978
 C            0.61335140        3.88027554        0.58335399
 C            1.41944733        3.64553541       -0.60088039
 C           -1.29214920        2.45616915        1.11612870
 C           -0.72849006        3.42773049        0.30002090
 C           -2.94178334        0.74327467        1.39722016
 C           -3.31458493       -0.56692797        0.89584862
 C           -2.23800912        1.59622467        0.56257349
 C           -2.36000192       -2.16197987       -0.59581400
 C           -2.93403832       -0.90902153       -0.39475605
 C           -0.78439760       -3.17521879       -2.13443887
 C           -2.07189517       -2.55159810       -1.89010695
 C           -0.42417015       -2.89516868       -3.51645287
 C            1.78965128       -2.18775611       -2.77382737
 C            2.41736574       -0.89947689       -2.51311542
 C            0.86658865       -2.29761763       -3.80203754
 C            1.77271324        1.41635401       -2.27423475
 C            1.87157738        0.25701726       -3.06215514
 C            0.51355503        3.37512747       -1.68550510
 C           -0.83241141        3.28156243       -1.14028914
 C            0.87050820        2.43581913       -2.63680891
 C           -2.25000670        1.36688501       -0.81898602
 C           -2.64139609        0.10819306       -1.30291517
 C           -1.68180577        2.31495068       -1.67946843
 C           -2.28977218       -1.59744708       -2.95856826
 C           -1.44990358       -2.02227154       -4.06568895
 C           -2.40281035       -0.24393211       -2.63303331
 C            0.64245584       -1.15002738       -4.66342374
 C            1.14807263        0.15040753       -4.25131025
 C           -0.79280802       -1.02011780       -4.87510480
 C           -0.12867769        2.14044784       -3.54631631
 C           -1.47424517        1.98196269       -3.01734280
 C           -1.98573350        0.72999424       -3.53344485
 C            0.10023769        1.10665845       -4.52168209
 C           -1.14191821        0.36922378       -4.66445489
