   70
C70 / DATE: 7/ 1/2024 / Origin: Program Fullerene / C70 from database
 C            1.41195839       -0.02220393        4.51727788
 C            2.66301836       -0.19689254        3.80623536
 C            2.58153731       -1.44028953        3.05366214
 C            0.56939455       -1.16590525        4.21904774
 C            1.27105643       -2.01136358        3.26887883
 C           -0.74821714       -0.67461618        3.85007062
 C            0.63462057        1.17930630        4.27633101
 C           -0.68662110        0.77584273        3.80975594
 C            1.24947565        2.27515158        3.68578078
 C            3.10324647        0.84683587        2.89737100
 C            2.48120460        2.08860992        2.92271930
 C            2.99483003       -1.17144969        1.69341605
 C            3.38256620        0.22456752        1.61560232
 C            2.26279389       -1.71037154        0.63738253
 C            0.55304285       -2.48119388        2.17679059
 C            1.13459516       -2.49598335        0.90155804
 C           -1.42928933       -1.33110053        2.83642397
 C           -0.83207445       -2.45516141        2.26795646
 C           -2.32554431       -0.59723146        2.06443232
 C           -1.28637511        1.45820359        2.74689718
 C           -2.04295958        0.74587941        1.80936036
 C            0.41904017        3.20776234        2.95008667
 C           -0.86836192        2.75042611        2.45458494
 C            2.34779608        2.83087345        1.68145446
 C            1.18666000        3.68056259        1.81155876
 C            3.11053338        0.90304912        0.43513291
 C            2.55761419        2.18919220        0.46410046
 C            2.40533706       -1.13187268       -0.62290834
 C            2.96970633        0.14805531       -0.72113297
 C            1.72810080       -1.69224292       -1.70720532
 C            0.37191573       -2.97874162       -0.16927895
 C            0.68971499       -2.59842037       -1.47810425
 C           -1.55244226       -3.17982205        1.33582296
 C           -0.87918270       -3.54046333        0.10166518
 C           -3.16338901       -1.29498945        1.20591070
 C           -2.87560042       -2.70047892        0.98660622
 C           -3.49722292       -0.70970914       -0.07869122
 C           -2.26269992        1.27246917        0.52439537
 C           -2.89544010        0.48854130       -0.45143647
 C           -1.01030055        3.25009537        1.10443323
 C            0.28498224        3.76776909        0.68370584
 C           -1.76175057        2.53338392        0.17999670
 C            1.94420807        2.69548733       -0.69150678
 C            0.74500086        3.41704425       -0.58117778
 C            2.92705261        0.83549127       -1.92251101
 C            2.30974769        2.14721165       -1.92210887
 C            1.91044978       -1.16464098       -2.98377776
 C            2.52206594        0.13975118       -3.12217774
 C            0.81425335       -1.20801758       -3.93008307
 C           -0.15906535       -2.95392066       -2.53009411
 C           -0.18203379       -2.14929968       -3.74224221
 C           -1.89147674       -3.61211512       -0.93905555
 C           -3.10118143       -2.99789941       -0.41323560
 C           -3.61074538       -1.79303806       -1.04448548
 C           -1.52932758       -3.34460487       -2.24861029
 C           -1.55460047       -1.73691811       -3.95860716
 C           -3.27827223       -1.55326331       -2.36843295
 C           -2.39482444       -2.49004841       -3.04566891
 C           -2.74042130        0.78875525       -1.80961458
 C           -2.88265060       -0.21399389       -2.76522683
 C           -1.88228411       -0.32967079       -3.81729530
 C           -1.54812752        2.82694067       -1.16107726
 C           -0.22704137        3.27736031       -1.56606740
 C           -2.04622062        1.92995167       -2.18065096
 C            1.38513186        2.19194139       -3.04314285
 C            1.58424715        0.99342201       -3.83498371
 C            0.43667561        0.17545076       -4.18874776
 C           -0.85420534        0.60922236       -3.87510647
 C            0.09747805        2.65107156       -2.83309340
 C           -1.04110272        1.83225570       -3.22886550
