   70
C70 / DATE: 7/ 1/2024 / Origin: Program Fullerene / C70 from database
 C            1.40848983       -0.01310526        4.97787365
 C            0.61769568       -1.18498490        4.64919781
 C            1.47575598       -2.10175801        3.93732863
 C            2.63576396       -0.08159757        4.20134821
 C            2.71174939       -1.39850275        3.61804582
 C            2.66089065        1.06411417        3.31618805
 C            0.67039625        1.15595496        4.53244305
 C            1.53534441        1.92034887        3.66097102
 C           -0.59517759       -0.73448377        3.99557850
 C           -0.59891339        0.71734767        3.99275228
 C           -1.05408829       -1.38453844        2.85589952
 C            0.98391592       -2.68530215        2.70441535
 C           -0.30908981       -2.42120669        2.26848586
 C            2.91105950       -1.51191511        2.18623623
 C            2.04606632       -2.58449854        1.73196358
 C            2.98908574        0.91168687        1.96659212
 C            3.02458331       -0.36910732        1.38671869
 C            2.77848296        2.02006445        1.15327169
 C            0.95129645        2.65548816        2.63713124
 C            1.76815968        2.98088913        1.56022441
 C           -1.08619472        1.37330181        2.86509956
 C           -0.42540840        2.52124326        2.41531094
 C           -1.99361946       -0.71770091        2.07672324
 C           -1.91919337        0.67545116        1.98178300
 C           -2.63436029       -1.44145293        1.08631023
 C           -0.63464087       -2.81311113        0.96819296
 C           -1.93218728       -2.58495170        0.53797751
 C            1.70089302       -2.59952447        0.39150544
 C            0.39286571       -2.93368886        0.02130278
 C            2.82472803       -0.52787480        0.00751322
 C            2.43294572       -1.78633220       -0.45995961
 C            2.67231232        1.85654201       -0.28141956
 C            2.65343932        0.58605907       -0.82115995
 C            1.17911607        3.55094117        0.36498625
 C            1.72360947        2.83478445       -0.78247125
 C           -1.01567135        3.25981776        1.39583789
 C           -0.16746451        3.87409498        0.38424625
 C           -2.43819137        1.33921119        0.86333680
 C           -2.16526563        2.69553635        0.71138904
 C           -3.26689933       -0.74192825       -0.01222001
 C           -2.99826999        0.61027536       -0.19756105
 C           -2.24556205       -2.66181579       -0.87118636
 C           -3.24920413       -1.64399787       -1.14734408
 C            0.09780876       -2.99987117       -1.34941547
 C           -1.23053442       -2.89014011       -1.79391224
 C            2.27062199       -1.98573707       -1.82072692
 C            1.15784249       -2.81240550       -2.24236147
 C            2.10578279        0.41484122       -2.08841323
 C            2.26456665       -0.82515899       -2.68494195
 C            0.88878567        2.49126825       -1.84844688
 C            1.08216184        1.27535886       -2.51414048
 C           -0.89575725        3.86212383       -0.86738514
 C           -2.20055160        3.27552899       -0.61057336
 C           -0.31960555        3.16260809       -2.00293471
 C           -3.07568381        1.16304791       -1.48755694
 C           -2.51271067        2.41242756       -1.72495398
 C           -1.41373784        2.49535397       -2.67502072
 C           -3.33074172       -1.11429536       -2.42214517
 C           -3.17600611        0.32040063       -2.59498773
 C           -1.52082980       -2.68119544       -3.14447113
 C           -2.59802471       -1.77096572       -3.49314489
 C            0.90766093       -2.47747292       -3.62855586
 C            1.48713937       -1.16091830       -3.85826052
 C           -0.45527191       -2.44374582       -4.09667707
 C            0.14127773        0.84706934       -3.46651730
 C           -1.15547690        1.37750141       -3.45509335
 C           -2.23614327        0.52943272       -3.68246755
 C           -2.03365216       -0.73863950       -4.34848175
 C            0.41272619       -0.27598904       -4.25000979
 C           -0.68089051       -1.13020129       -4.67926336
