   70
C70 / DATE: 7/ 1/2024 / Origin: Program Fullerene / C70 from database
 C            1.21450049        0.04071733        4.70519563
 C            2.43645976       -0.04886954        3.93294935
 C            2.48074833       -1.37391378        3.34371936
 C            0.38887767       -1.10881541        4.36343948
 C            1.16657753       -1.96807963        3.49486506
 C           -0.88339038       -0.61389786        3.87735327
 C            0.39501118        1.22314965        4.55898465
 C           -0.95347551        0.78819906        4.22656895
 C            0.76553479        2.22444881        3.57389210
 C            2.67526328        0.90979155        2.86581220
 C            1.79150440        1.96915300        2.65650433
 C            3.01422921       -1.24666008        1.99662427
 C            3.16448517        0.17053423        1.71517975
 C            2.48715370       -2.05772999        0.99887638
 C            0.57410953       -2.49296378        2.35503449
 C            1.41739596       -2.89364634        1.32910933
 C           -1.31738080       -1.01617326        2.61838242
 C           -0.73701217       -2.13523505        2.02178238
 C           -2.08730704       -0.15208615        1.83838304
 C           -1.47175632        1.71783764        3.24328791
 C           -0.48720426        2.77431033        3.09171168
 C           -2.09160375        1.22745831        2.09906443
 C           -0.47496249        3.48831606        1.90621742
 C            1.73218121        2.55910563        1.39014579
 C            0.75957265        3.52838876        1.14757344
 C            2.84992076        0.63923068        0.44536315
 C            2.38029090        1.94399262        0.31144638
 C            2.62491312       -1.64117499       -0.32476325
 C            2.65949751       -0.27152758       -0.60068491
 C            2.28243617       -2.53551310       -1.33290280
 C            0.87097134       -3.69678940        0.34304061
 C            1.49597098       -3.69565419       -0.96377934
 C           -1.27481580       -2.62498609        0.82834914
 C           -0.56450550       -3.61405348        0.14302559
 C           -2.63462077       -0.62720072        0.64660431
 C           -2.24846266       -1.87901062        0.15453379
 C           -3.30603003        0.26531707       -0.18458292
 C           -2.33411918        2.12184579        1.05668736
 C           -1.54097170        3.26065583        0.94359905
 C           -3.02425228        1.68006766       -0.06144763
 C            0.40495149        3.86718237       -0.21754921
 C           -1.02832299        3.63839820       -0.36406162
 C            2.26585609        2.47808136       -0.96828568
 C            1.25808169        3.49086298       -1.23924290
 C            2.28228033        0.19959679       -1.86232872
 C            2.30068143        1.56965091       -2.10103101
 C            1.75983487       -2.02832287       -2.59025614
 C            1.63523494       -0.65429691       -2.76375920
 C            0.45230869       -3.87224449       -1.95496986
 C           -0.82799457       -3.86650172       -1.26310401
 C            0.68486984       -2.91138703       -3.01886389
 C           -2.69610734       -2.29614270       -1.10134890
 C           -1.91118510       -3.24933513       -1.86784698
 C           -3.44232759       -0.02453633       -1.59863769
 C           -3.23414660       -1.32018011       -2.03625711
 C           -2.63432186        2.16817799       -1.37763163
 C           -1.52187995        2.99614507       -1.50015948
 C           -2.84647783        1.08831468       -2.33137273
 C            0.69099502        3.21439491       -2.54336229
 C            1.43255423        2.10892417       -3.12397242
 C           -0.72431775        2.90001345       -2.63722583
 C            0.66875365       -0.15451042       -3.64852594
 C           -1.90605991        0.84973446       -3.33681376
 C            0.48031086        1.21787560       -3.74898276
 C           -0.85518309        1.74752819       -3.51452258
 C           -0.41025282       -2.37124152       -3.67545700
 C           -1.74637983       -2.70612846       -3.20649196
 C           -2.57206728       -1.51603909       -3.30915585
 C           -0.40395717       -0.96046411       -4.01634173
 C           -1.75146643       -0.44208921       -3.83758677
