   70
C70 / DATE: 7/ 1/2024 / Origin: Program Fullerene / C70 from database
 C            1.20584383       -0.20553862        4.33231280
 C            2.46633505       -0.56941867        3.72896521
 C            2.40158873       -1.97807881        3.37030813
 C            0.37248591       -1.39658985        4.37775603
 C            1.06100708       -2.44923400        3.65742603
 C           -0.96250185       -1.01124356        3.95816922
 C            0.42342325        0.85132196        3.72147971
 C           -0.95963388        0.42800619        3.73167068
 C            0.89456997        1.51208691        2.59684084
 C            2.90881893        0.15786689        2.55615330
 C            2.15095867        1.20681261        2.05071512
 C            2.92569950       -2.11058660        2.02211648
 C            3.43799184       -0.80863421        1.61964993
 C            2.24966518       -2.88625242        1.08246406
 C            0.37355247       -3.16132019        2.68510832
 C            1.00580371       -3.43809597        1.40130422
 C           -1.68062819       -1.82341187        3.08206051
 C           -1.03659682       -2.88451257        2.43849907
 C           -2.80913647       -1.27288055        2.48190379
 C           -1.84090412        0.94404744        2.78457089
 C           -2.96116256        0.17112770        2.51017305
 C           -0.01903168        2.23689289        1.83712447
 C           -1.36387094        1.84069628        1.80946740
 C            0.47735961        3.08673284        0.86034697
 C            2.45744705        1.66941077        0.77305808
 C            1.79020111        2.80065108        0.31426124
 C            3.44617335       -0.48693425        0.26689701
 C            3.09866280        0.80974899       -0.13115870
 C            2.58164726       -2.71673821       -0.25881760
 C            3.32845368       -1.53177822       -0.64595760
 C            1.56353915       -2.92387074       -1.27376856
 C           -0.04225056       -3.47679479        0.39031423
 C           -1.29588479       -3.12792839        1.02484906
 C            0.23120869       -3.00533798       -0.88326347
 C           -3.16866903       -1.69248447        1.13884714
 C           -2.20656671       -2.31855374        0.35885949
 C           -3.82669777        0.53423823        1.41541722
 C           -3.97978237       -0.64312592        0.56986085
 C           -2.19159732        2.23705231        0.74110071
 C           -3.43093806        1.62478961        0.55472400
 C           -0.37984403        3.50592762       -0.22733213
 C           -1.66608765        2.98637476       -0.31783902
 C            1.77069486        3.11994890       -1.10098223
 C            0.44669676        3.62742631       -1.42196281
 C            3.14761627        1.13090780       -1.48761671
 C            2.42936859        2.28793823       -1.99331142
 C            3.01813147       -1.24828866       -2.03745611
 C            1.93232964       -2.13374807       -2.43509958
 C            3.02916769        0.06932100       -2.47284524
 C            0.92966820       -1.66432922       -3.27008546
 C           -0.73953111       -2.27464223       -1.57341710
 C           -1.87739657       -1.79999437       -0.90461726
 C           -0.45584043       -1.82514642       -2.85981017
 C           -3.71986312       -0.22511451       -0.78813572
 C           -3.81031730        1.22126673       -0.78383886
 C           -2.68971777       -0.82305779       -1.51106149
 C           -2.31150055        2.96841354       -1.55605805
 C           -3.25449503        1.90437341       -1.84618065
 C           -0.10757492        3.37195972       -2.66953249
 C           -1.54049185        3.17699726       -2.77053983
 C            1.78740675        1.90795632       -3.24356952
 C            2.07832082        0.50279202       -3.48386895
 C            1.06185131       -0.35623849       -3.89012128
 C            0.53431947        2.41995945       -3.56386183
 C           -1.21191858       -0.72016578       -3.41297234
 C           -2.25933281       -0.18139823       -2.67599334
 C           -2.66715234        1.13067504       -2.92415899
 C           -1.77862440        2.03143427       -3.63681635
 C           -0.27803121        0.16208810       -4.10336756
 C           -0.49443585        1.53422519       -4.08935689
