   70
C70 / DATE: 7/ 1/2024 / Origin: Program Fullerene / C70 from database
 C            1.39554668       -0.23332190        4.23939350
 C            2.49751683       -0.40098466        3.31132960
 C            2.38183379       -1.72376695        2.71522056
 C            0.54216463       -1.40707856        4.13645145
 C            1.15510501       -2.33126019        3.19854983
 C           -0.81430714       -0.95082069        3.88784313
 C            0.55547949        0.94168723        4.12785635
 C           -0.82666219        0.49063736        4.06303159
 C            0.97633181        1.99588168        3.32646634
 C            2.90509691        0.66425625        2.50773298
 C            2.17409985        1.85606866        2.50858326
 C            3.69727075        0.37355359        1.40035212
 C            2.77904804       -1.88733317        1.39110393
 C            3.74033782       -0.99942194        0.92400220
 C            1.91965329       -2.51972642        0.47733691
 C            0.34388460       -3.01183278        2.30676782
 C            0.79709654       -3.20183226        0.93970323
 C           -1.54680302       -1.52470218        2.84965441
 C           -1.07481526       -2.69562194        2.25468388
 C           -2.57316363       -0.79584224        2.23901531
 C           -1.76283761        1.23945289        3.36734998
 C           -2.74254696        0.55172041        2.54288026
 C            0.00175351        2.75485396        2.55976341
 C           -1.34572127        2.43630734        2.65121475
 C            1.93777794        2.55461040        1.25022646
 C            0.57260471        3.03245014        1.25081257
 C            3.59876023        1.21799824        0.22311344
 C            2.48899829        2.04372831        0.08385564
 C            4.05428379       -0.96422813       -0.48641898
 C            4.05288210        0.43231421       -0.90017947
 C            2.03319636       -2.26835471       -0.89674204
 C            3.18966835       -1.67862243       -1.39764979
 C            0.90562504       -2.37406283       -1.72100877
 C           -0.38117636       -3.26812824        0.09269696
 C           -1.54799758       -3.08020309        0.93870132
 C           -0.33600347       -2.67416718       -1.16436110
 C           -3.22810459       -1.31402860        1.12476931
 C           -2.66014502       -2.44833859        0.41468659
 C           -3.78625263       -0.40473306        0.13124297
 C           -3.15111105        1.47176147        1.49562975
 C           -2.17468045        2.54769184        1.46518323
 C           -3.62542614        0.97547995        0.28454666
 C           -0.20932306        2.86557495        0.11543880
 C           -1.60013818        2.88650956        0.24468029
 C            1.72052254        1.99543058       -1.09204637
 C            0.38216825        2.43356474       -1.07933487
 C            3.31256709        0.51023915       -2.13647995
 C            3.10001681       -0.85568984       -2.58593824
 C            2.26399962        1.41933003       -2.25229401
 C            0.96462223       -1.93891140       -3.04207945
 C            2.06459301       -1.08752287       -3.47309994
 C           -0.25017231       -1.45037831       -3.67168347
 C           -1.50427310       -2.15821624       -1.73947664
 C           -2.68621789       -2.13422341       -1.00143620
 C           -3.60906966       -1.03002992       -1.17548043
 C           -1.44130699       -1.46030094       -2.94972355
 C           -3.49457925       -0.23855036       -2.30683864
 C           -2.41473716       -0.49954262       -3.24717472
 C           -3.48440267        1.78140230       -0.84362787
 C           -2.38651425        2.73743773       -0.88616133
 C           -3.61448772        1.19815728       -2.16445639
 C           -0.37502924        2.43272124       -2.25649143
 C           -2.01078714        0.77844670       -3.82222609
 C           -1.75115544        2.62879034       -2.18226371
 C           -2.61774123        1.81894980       -3.01973011
 C            1.49336001        1.33419013       -3.40541202
 C            1.47586011        0.06830500       -4.12077149
 C            0.09647094       -0.25455352       -4.41839749
 C            0.14350264        1.85582918       -3.41144102
 C           -0.68600994        0.94099954       -4.19144519
