   70
C70 / DATE: 7/ 1/2024 / Origin: Program Fullerene / C70 from database
 C            1.55806844       -0.06504813        4.98233799
 C            0.68655912       -1.20974978        5.16327737
 C            1.21138168       -2.28484265        4.34749953
 C            2.54104898       -0.40300837        3.96338287
 C            2.28963646       -1.75470416        3.52603579
 C            2.51659384        0.64322265        2.97106431
 C            0.75111120        1.01647810        4.45293609
 C            1.48544728        1.59433880        3.34776249
 C           -0.62175320       -0.86991829        4.62496229
 C           -0.57363987        0.50323034        4.16823630
 C            0.08466187       -2.88633720        3.66563169
 C           -0.98627938       -1.89863897        3.66880595
 C            0.35036869       -3.52929711        2.47366566
 C            2.27164274       -2.04417918        2.16097361
 C            1.58811657       -3.19266500        1.78230365
 C            2.61557908        0.31121855        1.62344166
 C            2.46713289       -1.02183184        1.21010812
 C            2.31252245        1.31510878        0.71500636
 C            0.76092280        2.16123428        2.31003153
 C            1.42079038        2.31973898        1.10352554
 C           -1.12188294        0.81705209        2.93069047
 C           -0.61029115        1.91925472        2.24550101
 C           -1.55771294       -1.51852560        2.45096452
 C           -1.79444087       -0.16431770        2.19552358
 C           -0.67279020       -3.51425515        1.45392630
 C           -1.53278887       -2.41990422        1.38361609
 C            1.36882440       -3.45817828        0.38021428
 C            0.00136515       -3.94460985        0.25221032
 C            2.27723319       -1.29225447       -0.16312013
 C            1.85319474       -2.56752032       -0.56968597
 C            2.50393129        1.07289415       -0.63511284
 C            2.35323058       -0.24116894       -1.10191286
 C            2.34917024        2.15416064       -1.49539075
 C            0.78091644        3.06422394        0.12148896
 C            1.42323497        3.19978004       -1.10292957
 C           -1.28817600        2.34715987        1.10683367
 C           -0.60968978        3.15939109        0.19222224
 C           -2.35780797        0.21390380        0.97915040
 C           -2.35297796        1.56806552        0.65502373
 C           -2.02220471       -2.02723333        0.13393578
 C           -2.48348734       -0.72185221       -0.05136294
 C           -0.64320573       -3.75643001       -0.95358853
 C           -1.75970522       -2.82316421       -0.98597417
 C            1.44201939       -2.77299323       -1.88056751
 C            0.18416347       -3.46577805       -2.10513967
 C            2.09036823       -0.48608777       -2.46355194
 C            1.51502555       -1.69222174       -2.83366008
 C            2.18504105        1.92050017       -2.90724919
 C            1.88279308        0.57903259       -3.33647873
 C            0.67576545        3.61330747       -2.27760308
 C            1.13368677        2.80132587       -3.39401716
 C           -1.32442102        3.71477875       -0.86499254
 C           -0.67869479        3.89241424       -2.15650288
 C           -3.05908134        1.98134272       -0.46648310
 C           -2.66788221        3.22392401       -1.10525705
 C           -2.77354337       -0.27395890       -1.34432663
 C           -3.29924387        1.00246591       -1.51076789
 C           -1.78795079       -2.22294366       -2.31042819
 C           -0.60757820       -2.66817060       -3.01883312
 C            0.26242282       -1.65887982       -3.57858552
 C           -2.15496989       -0.89181143       -2.43077170
 C            0.63437151        0.61817477       -4.08284245
 C            0.17236852        1.99383280       -4.12921486
 C           -0.27444721       -0.41509310       -3.88558878
 C           -1.56288055       -0.10674570       -3.43005472
 C           -1.58755239        3.39730983       -3.17771444
 C           -2.84665602        3.06664810       -2.53676713
 C           -3.11657051        1.66290218       -2.79079232
 C           -1.18313814        2.25797846       -3.98410728
 C           -2.08726689        1.15792477       -3.68091444
