   70
C70 / DATE: 7/ 1/2024 / Origin: Program Fullerene / C70 from database
 C            1.08216109       -0.15001253        4.69853627
 C            2.32485288       -0.47362931        4.03362470
 C            2.16942693       -1.77978401        3.41328820
 C            0.21223020       -1.30933300        4.58391334
 C            0.79167812       -2.19332330        3.58783655
 C           -1.13307576       -0.82263636        4.37527284
 C            0.33200680        1.00569782        4.24039571
 C           -1.06756655        0.62359956        4.22585557
 C            0.82283221        1.77351277        3.18492653
 C            2.81833020        0.43308175        3.01699490
 C            2.15981183        1.63269055        2.77801011
 C            2.69565474       -1.69186922        2.06633611
 C            3.22891810       -0.35679855        1.86918981
 C            1.98482898       -2.25922486        1.02693350
 C            0.04926137       -2.54393018        2.45866677
 C            0.72196767       -2.81394018        1.25892499
 C           -1.88237718       -1.33783046        3.24918049
 C           -1.33558555       -2.33321666        2.44421748
 C           -1.87467530        0.98666964        3.07284329
 C           -2.53353193       -0.21437754        2.59888445
 C           -0.09332897        2.42443098        2.34997674
 C           -1.35255958        1.86414438        2.13557993
 C            0.36361496        3.39159395        1.46667612
 C            2.60472856        2.36086780        1.68205846
 C            1.77969802        3.43523482        1.17634152
 C            3.15329454        0.22970599        0.60077756
 C            3.12123224        1.62105268        0.53716047
 C            2.30748310       -1.85699898       -0.25744749
 C            2.65306451       -0.52154157       -0.47474671
 C            1.83301417       -2.62490168       -1.30303556
 C            0.01942878       -3.34589267        0.17488807
 C            0.67567753       -3.46576590       -1.05102681
 C           -2.04514803       -2.64840970        1.29361570
 C           -1.37245778       -3.31796832        0.19842976
 C           -2.83793359       -0.33368219        1.24545625
 C           -2.89675191       -1.61898311        0.71494805
 C           -1.89166657        1.86870123        0.85074653
 C           -2.57292430        0.73447328        0.38368337
 C           -0.34926617        3.60019974        0.21743793
 C           -1.51973948        2.88400614       -0.03660544
 C            1.94086933        3.47220921       -0.26548269
 C            2.64488438        2.27411290       -0.66627178
 C            0.63831867        3.71263940       -0.84707932
 C            2.23516658        0.11868824       -1.65299190
 C            2.09472623        1.50816394       -1.68207482
 C            1.67736995       -2.02242036       -2.61005937
 C            1.78203697       -0.64015617       -2.73930503
 C           -0.10091615       -3.51894257       -2.27675395
 C            0.58594198       -2.71217475       -3.27211145
 C           -2.11525048       -2.99169577       -1.01126399
 C           -2.89949263       -1.80311683       -0.72559220
 C           -1.48880426       -3.10157913       -2.24203592
 C           -2.80775196        0.58284993       -0.98276786
 C           -2.78475954       -0.69377399       -1.55575208
 C           -1.97392435        2.84118627       -1.35303124
 C           -2.76292356        1.70723605       -1.79162470
 C            0.33205351        3.12505312       -2.06695960
 C            1.15791538        2.09109207       -2.53826174
 C           -1.01483914        3.11749817       -2.40728835
 C            1.11596017       -0.00888458       -3.79424845
 C            0.82311191        1.41215423       -3.70549108
 C           -0.40587304       -1.91779994       -3.96453108
 C           -1.65106072       -2.03427297       -3.21636145
 C           -2.34951946       -0.87389085       -2.87491648
 C           -0.03098974       -0.66299997       -4.41933603
 C           -2.54444961        1.54581714       -3.21565311
 C           -1.44920588        2.42439009       -3.59976078
 C           -0.47482017        1.63404808       -4.31838449
 C           -2.24946573        0.22307780       -3.72601918
 C           -1.07091752        0.33587847       -4.56733592
