   70
C70 / DATE: 7/ 1/2024 / Origin: Program Fullerene / C70 from database
 C            1.37566055        0.05331749        4.53235145
 C            2.64797767       -0.14024306        3.86488890
 C            2.59880098       -1.41794972        3.17097287
 C            0.54812004       -1.10683475        4.25418360
 C            1.27819931       -1.97926021        3.35192821
 C           -0.76198928       -0.63789056        3.83760740
 C            0.59878535        1.23992158        4.22418718
 C           -0.71720544        0.81190918        3.76405032
 C            1.21905080        2.30997277        3.59356576
 C            3.10382501        0.86381515        2.91905936
 C            2.46956775        2.09812843        2.86905230
 C            3.07422352       -1.21289225        1.82056642
 C            3.42961727        0.18594576        1.67572624
 C            2.40992267       -1.82533868        0.76496457
 C            0.60089288       -2.47835675        2.24552818
 C            1.24893287       -2.57528174        1.00741326
 C           -1.41290644       -1.32335930        2.82440358
 C           -0.78741848       -2.43916319        2.26711060
 C           -2.34129959       -0.62905096        2.05651563
 C           -1.32508003        1.46039531        2.68370532
 C           -2.11714459        0.72343954        1.79396734
 C            0.40005737        3.20458466        2.80039696
 C           -0.88606013        2.72996370        2.31964265
 C            2.35989628        2.77808872        1.59157262
 C            1.17881423        3.61229209        1.64400456
 C            3.16878440        0.79915711        0.45342855
 C            2.62294517        2.08819117        0.41211726
 C            2.64875434       -1.34039401       -0.51731872
 C            3.06205794       -0.01228026       -0.67691835
 C            2.14945666       -2.05709712       -1.59512671
 C            0.55316630       -3.13533706       -0.07524555
 C            1.03493291       -2.95725043       -1.37072791
 C           -1.47351339       -3.17367657        1.31465407
 C           -0.77369267       -3.53296505        0.09293593
 C           -3.17341065       -1.36256163        1.22392149
 C           -2.80951905       -2.74073251        0.95195073
 C           -3.63254016       -0.77381683       -0.01886484
 C           -2.42851013        1.24896498        0.53036972
 C           -3.22117015        0.51420356       -0.36073680
 C           -1.00952599        3.15083226        0.93912577
 C            0.29398571        3.61235349        0.49586450
 C           -1.75379190        2.37893147        0.06037079
 C            2.03267321        2.53476309       -0.77241901
 C            0.76762305        3.13781365       -0.72263627
 C            2.97002809        0.60595116       -1.92026067
 C            2.46491460        1.96472214       -1.96532534
 C            1.95350077       -1.40544228       -2.87683394
 C            2.42607554       -0.11642727       -3.05800093
 C            0.09357191       -2.78356233       -2.46901380
 C            0.62880941       -1.76782406       -3.36322597
 C           -1.70972763       -3.39351891       -1.01515229
 C           -2.98895635       -2.98412456       -0.46553695
 C           -3.64376315       -1.82516024       -1.03183319
 C           -1.27296597       -2.83044714       -2.21197121
 C           -3.35242551       -1.48999915       -2.34318716
 C           -2.13981821       -2.02546863       -2.95617733
 C           -3.29829520        0.91356443       -1.69638544
 C           -3.45846974       -0.09784588       -2.72549542
 C           -1.47288236        2.48079079       -1.29844289
 C           -0.17702186        2.82067942       -1.69984347
 C           -2.35709396        1.89966124       -2.19745339
 C            1.63942571        2.09439314       -3.15050337
 C            1.64114364        0.81514631       -3.84293099
 C            0.26090020        2.50217625       -2.98046819
 C           -0.22102322       -0.79857525       -3.89506427
 C           -1.59718946       -1.00049638       -3.83692621
 C           -2.47251015        0.15592674       -3.75898929
 C           -1.88237129        1.45416625       -3.49877156
 C            0.26362734        0.48328653       -4.16136921
 C           -0.54942931        1.64317514       -3.82294744
