   70
C70 / DATE: 7/ 1/2024 / Origin: Program Fullerene / C70 from database
 C            1.56551993       -0.02715330        4.54786295
 C            0.75509980       -1.22459654        4.50725940
 C            1.24297663       -2.07500291        3.43168447
 C            2.59233998       -0.16262679        3.53370255
 C            2.36275661       -1.39198367        2.80540054
 C            2.59934394        1.06340682        2.77618284
 C            0.71065932        1.08373475        4.15700687
 C            1.37145726        1.77500380        3.07741546
 C           -0.62801465       -0.79731564        4.44925551
 C           -0.61450347        0.55727259        3.91731964
 C           -1.52921343       -1.68676794        3.90281335
 C            0.29321309       -2.71651175        2.63798978
 C           -0.99124524       -2.82143527        3.16867350
 C            0.46839283       -2.74218549        1.24386870
 C            2.43674245       -1.35475279        1.41935872
 C            1.65023209       -2.23775148        0.68754855
 C            2.95579366        1.01030420        1.44125001
 C            2.98239201       -0.22808952        0.78518328
 C            2.61818537        2.11533684        0.68522227
 C            0.62356187        2.22611395        1.99485068
 C            1.34414286        2.66052370        0.88519684
 C           -1.24056002        0.81588554        2.69300877
 C           -0.66693695        1.71878658        1.78403191
 C           -2.56644192       -1.15710977        3.04817076
 C           -2.28045397       -0.02385247        2.27926583
 C           -2.06616525       -3.31125335        2.33746108
 C           -3.13900890       -2.32799884        2.42115433
 C           -0.58169753       -3.13986449        0.39727598
 C           -1.80468722       -3.53210435        0.93455458
 C           -0.49527153       -2.89840409       -0.97955417
 C            1.86613650       -2.34019550       -0.67885492
 C            0.76042069       -2.70334828       -1.54415187
 C            3.15134159       -0.24100498       -0.60980101
 C            2.64349248       -1.30988568       -1.34785230
 C            3.20711998        2.20560350       -0.55901178
 C            3.41356246        0.96173952       -1.27589640
 C            2.70976104        3.19306021       -1.48979890
 C            0.64676193        3.18721955       -0.19813206
 C            1.38437940        3.72119340       -1.25589263
 C           -1.26946220        1.91819053        0.53863246
 C           -0.69063622        2.80935334       -0.37144568
 C           -2.81219145        0.10601358        0.98831384
 C           -2.30342943        1.07295298        0.11853325
 C           -3.70028639       -2.19111459        1.10304191
 C           -3.00962298       -3.13905743        0.24263245
 C           -3.61540236       -0.90178164        0.45065004
 C           -1.65101831       -2.59209277       -1.71639208
 C           -2.86727101       -2.50536191       -1.04819446
 C           -3.49506807       -1.19567737       -0.96003465
 C           -1.54242415       -1.81992770       -2.86903161
 C            0.89544733       -1.95327406       -2.78157831
 C            2.02668968       -1.05571588       -2.64271814
 C           -0.24048302       -1.51240791       -3.43107736
 C            2.89080341        1.15900863       -2.61993285
 C            2.70619496        2.58471559       -2.80769795
 C            1.95616160        0.25323402       -3.11614729
 C            0.77913162        3.89224652       -2.55828997
 C            1.52036752        3.04845627       -3.48812731
 C           -1.34939182        3.05516172       -1.57434325
 C           -0.62390615        3.58735390       -2.71153954
 C           -2.66079940        1.02264290       -1.23659148
 C           -3.01962784       -0.20243286       -1.80055908
 C           -2.35448215       -0.61848755       -2.94891313
 C           -2.25228711        2.04483375       -2.08663813
 C           -0.28704847       -0.15408713       -3.94604549
 C            0.80096342        0.70420681       -3.78024645
 C            0.59092798        2.06818587       -4.00504690
 C           -0.73582821        2.61375408       -3.78323459
 C           -1.63629029        0.35813166       -3.73971660
 C           -1.80131611        1.69898658       -3.42928475
