   70
C70 / DATE: 7/ 1/2024 / Origin: Program Fullerene / C70 from database
 C            1.04730323       -0.19714041        4.65284614
 C            2.30949138       -0.49643444        4.01015100
 C            2.18765208       -1.78921115        3.35962957
 C            0.18463847       -1.35691336        4.49546156
 C            0.82559609       -2.25530723        3.55493797
 C           -1.14702759       -0.87941992        4.19623838
 C            0.30292184        0.96807754        4.20883421
 C           -1.08775813        0.56896292        4.08892756
 C            0.84087827        1.79837477        3.22622380
 C            2.81368896        0.43506572        3.02561743
 C            2.18971095        1.66314100        2.85582830
 C            2.68502390       -1.65875649        1.99443495
 C            3.17528736       -0.30793784        1.82908886
 C            1.95002348       -2.23138047        0.96908960
 C            0.13137337       -2.70496789        2.43623111
 C            0.88463535       -3.05382481        1.31859433
 C           -1.80957500       -1.37700289        3.00702735
 C           -1.21984654       -2.37681032        2.24630875
 C           -1.81763085        0.95369229        2.89322195
 C           -2.38005250       -0.24792544        2.30410913
 C           -0.04136451        2.48574947        2.38406693
 C           -1.26340125        1.90262157        2.04727016
 C            0.45117847        3.50839000        1.58531088
 C            2.66396031        2.42925201        1.80096345
 C            1.87836553        3.55772390        1.35873762
 C            3.03976874        0.33360760        0.59859496
 C            3.12570638        1.72028453        0.61319979
 C            1.95885373       -1.63982699       -0.29874270
 C            2.33572127       -0.29927037       -0.43875361
 C            1.29955758       -2.29649939       -1.33943172
 C            0.25218505       -3.75428653        0.31191703
 C            0.69156520       -3.52105701       -1.04535442
 C           -1.77190888       -2.63594138        0.99454074
 C           -1.19101198       -3.67088679        0.27701781
 C           -2.48917289       -0.32677486        0.91806521
 C           -2.37133046       -1.57255748        0.29536829
 C           -1.69823623        1.95274691        0.72495727
 C           -2.31106939        0.82653619        0.15564776
 C           -0.20264125        3.79320912        0.31745171
 C           -1.30226469        3.02523007       -0.07532126
 C            2.09652550        3.70058849       -0.06602207
 C            2.71052152        2.47480556       -0.54564822
 C            0.83902891        4.09984496       -0.65787235
 C            1.89378964        0.43647456       -1.55204428
 C            2.11869617        1.81970588       -1.61836373
 C            0.93597903       -1.58859226       -2.49380997
 C            1.15854343       -0.20282913       -2.56521750
 C            0.16925974       -2.21926520       -3.48177242
 C           -0.37961451       -4.02455336       -1.87599905
 C           -1.59887073       -3.90085944       -1.08804018
 C           -0.62398389       -3.38097370       -3.14010100
 C           -2.55640923       -1.65554180       -1.09262309
 C           -2.40391805       -2.89096499       -1.73040547
 C           -2.01019265       -2.93959248       -3.12234459
 C           -2.53639735        0.76794050       -1.21854524
 C           -2.65583148       -0.47643941       -1.85081742
 C           -1.70460180        3.07153225       -1.40586695
 C           -2.37984596        1.92251682       -1.98607770
 C            0.61787918        3.73446584       -1.97299924
 C            1.36387604        2.59250395       -2.49439701
 C           -0.75570505        3.55996899       -2.38932554
 C            0.52285381        0.55756500       -3.56593513
 C           -1.94063941        1.80992295       -3.37078356
 C            0.53532188        1.94204759       -3.48081752
 C           -0.74836451        2.62432054       -3.49053564
 C           -0.70365604       -1.41758201       -4.30452973
 C           -2.06668068       -1.72319249       -3.88941107
 C           -2.56561168       -0.52780325       -3.24502848
 C           -0.56731035        0.01413493       -4.23481247
 C           -1.88543632        0.54731856       -3.92816123
