   70
C70 / DATE: 7/ 1/2024 / Origin: Program Fullerene / C70 from database
 C            1.16496467        0.19920009        4.76360631
 C            2.43285263        0.00566307        4.09249833
 C            2.52825686       -1.40264161        3.76716444
 C            0.36219973       -0.99879477        4.54497390
 C            1.18981519       -1.96195819        3.85860693
 C           -0.87599231       -0.59141599        3.92182340
 C            0.35704470        1.33613299        4.38306983
 C           -0.97875484        0.83954396        4.10676593
 C            0.75243280        2.13208950        3.23291951
 C            2.71046936        0.74913924        2.87371214
 C            1.82154332        1.72843159        2.42896243
 C            3.22421039       -1.51658216        2.49707846
 C            3.26112545       -0.18555815        1.90620735
 C            2.88863008       -2.58559105        1.68368906
 C            0.69328137       -2.63148451        2.74535364
 C            1.64097755       -3.27813772        1.96194220
 C           -1.22441071       -1.12382424        2.68273263
 C           -0.51323402       -2.20807060        2.15087838
 C           -2.09345633       -0.40352202        1.86001988
 C           -1.50493724        1.62380348        3.01206674
 C           -0.48031422        2.55721795        2.59017736
 C           -2.21307594        0.98481400        2.01252565
 C           -0.43973415        2.90489829        1.24286083
 C            1.78392690        2.04245369        1.07050332
 C            0.80275564        2.92464610        0.61976241
 C            2.93997222       -0.01373387        0.56084135
 C            2.43053197        1.21244123        0.14635123
 C            2.92883907       -2.40308573        0.24761331
 C            2.79092402       -1.12107802       -0.27617179
 C            1.22723570       -3.92228058        0.74180968
 C            2.12995503       -3.47220637       -0.30927475
 C           -0.91607314       -2.74305951        0.91547382
 C           -0.11817308       -3.69147526        0.27137405
 C           -2.58777465       -0.99932170        0.69846072
 C           -1.95227331       -2.13739362        0.19176345
 C           -3.44736745       -0.25439975       -0.11667778
 C           -2.51936604        1.73911472        0.89257898
 C           -1.57526695        2.67967286        0.45317107
 C           -3.42581809        1.19041668        0.00487359
 C           -1.54944357        3.09298934       -0.88659416
 C            0.87436735        3.38148688       -0.68594870
 C           -0.36532960        3.61416263       -1.40378447
 C            2.25326477        1.44444546       -1.21599141
 C            1.76500412        2.69263403       -1.59650887
 C            2.21054502       -0.94381402       -1.53652367
 C            2.14923823        0.34237189       -2.07670699
 C            1.31698534       -3.19089605       -1.47182438
 C           -0.02177061       -3.66313556       -1.17421240
 C            1.45106441       -1.97021940       -2.12289769
 C           -2.16123858       -2.51523995       -1.13773510
 C           -1.07348286       -3.11682573       -1.88448034
 C           -3.58219039       -0.57288659       -1.52818735
 C           -2.84115591       -1.61533663       -2.04984242
 C           -3.56712042        1.76632229       -1.31113795
 C           -2.54984467        2.68716990       -1.76955507
 C           -3.64838431        0.67421701       -2.26716838
 C           -2.19796605        2.29310318       -3.12603009
 C           -2.67048982        0.92827118       -3.31103811
 C           -0.07494165        3.46474794       -2.82107378
 C            1.26613605        2.91170826       -2.93873293
 C           -0.96516750        2.66523913       -3.64320499
 C            1.62649203        0.48799384       -3.36062027
 C            1.20930555        1.78961470       -3.84373596
 C           -0.15995913        1.66567287       -4.32052442
 C            0.49394815       -1.64671533       -3.08443928
 C           -0.77609329       -2.21325893       -2.98589975
 C           -1.94479118       -1.36936516       -3.17448363
 C           -1.77260121       -0.07764746       -3.67118678
 C            0.64731727       -0.47702940       -3.81508830
 C           -0.53761975        0.26615567       -4.21693034
