   70
C70 / DATE: 7/ 1/2024 / Origin: Program Fullerene / C70 from database
 C            1.24534363       -0.09361461        4.17237701
 C            2.46828071       -0.29149610        3.41576590
 C            2.45878769       -1.67213135        2.95363983
 C            0.39772365       -1.25497438        3.94388182
 C            1.08278077       -2.12781123        3.01859785
 C           -0.91536354       -0.77981470        3.58830357
 C            0.45024169        1.09603467        3.93343013
 C           -0.91304122        0.67228871        3.67147559
 C            0.99012120        2.12644524        3.18545268
 C            2.93185553        0.71718416        2.56927535
 C            2.27435745        1.94552967        2.52088014
 C            3.81848004        0.39079604        1.54793691
 C            3.22035997       -2.01634332        1.84927041
 C            4.08126494       -1.00813925        1.25934722
 C            2.59027751       -2.74662489        0.76151997
 C            0.44482213       -2.52308502        1.84414262
 C            1.22793259       -3.04559724        0.81011864
 C           -1.59773645       -1.37350152        2.53533336
 C           -0.89524999       -2.15757872        1.60507169
 C           -2.76150359       -0.73444591        2.13527769
 C           -1.71848868        1.38325979        2.78101973
 C           -2.82949845        0.71235327        2.27019499
 C            0.12784289        2.87850219        2.29389999
 C           -1.19397037        2.48720617        2.09167311
 C            2.23973542        2.69214468        1.27139818
 C            0.92384855        3.30381909        1.15251154
 C            3.73901836        1.09656785        0.27783410
 C            2.87003629        2.17789750        0.14141423
 C            4.05780487       -1.18213636       -0.18371958
 C            3.14993925       -2.26206529       -0.49091182
 C            3.81165713        0.10594367       -0.78708322
 C            2.30176200       -2.15001566       -1.58633805
 C            0.62020246       -3.44294143       -0.37207673
 C            1.22553449       -3.03135131       -1.62855978
 C           -1.51757922       -2.53932336        0.40617294
 C           -0.81257947       -3.30694356       -0.51461962
 C           -3.38899086       -1.09694025        0.88555236
 C           -2.74647432       -1.98372893        0.03192175
 C           -3.54620543        1.23455021        1.12184817
 C           -4.01570344        0.10004944        0.34268922
 C           -1.85423554        2.99645823        0.97507832
 C           -3.06024319        2.35940826        0.47651008
 C            0.31911951        3.41358159       -0.09653711
 C           -1.07173912        3.43298952       -0.17193594
 C            2.35301961        2.46847272       -1.11872438
 C            1.05798086        3.12147558       -1.24005236
 C            2.91976179        0.19924565       -1.84779693
 C            2.22930931       -0.93910351       -2.29457047
 C            2.44273769        1.46606871       -2.16816421
 C            1.30804913       -0.80953912       -3.33569778
 C            0.16382381       -2.84747672       -2.59845822
 C           -1.09167527       -3.16283750       -1.93366787
 C            0.23188754       -1.77777982       -3.47801492
 C           -3.17162607       -2.05850609       -1.29481321
 C           -2.25689958       -2.52125699       -2.32206629
 C           -4.15942004        0.22106322       -1.03322997
 C           -3.92546023       -0.95170109       -1.85682253
 C           -3.02182416        2.40173101       -0.97815092
 C           -1.73256044        2.94236305       -1.37121897
 C           -3.57237083        1.36467224       -1.71727612
 C            0.38802377        2.57049135       -2.41026721
 C            1.28882103        1.61687239       -3.03417140
 C            0.76475758        0.50003576       -3.65775900
 C           -0.97792726        2.30796716       -2.35436909
 C           -0.98032252       -1.05411749       -3.82788274
 C           -2.20987200       -1.50233047       -3.36188910
 C           -3.23777682       -0.52105392       -3.06214120
 C           -2.84847973        0.86544186       -2.87319975
 C           -0.67595518        0.36762971       -3.77251027
 C           -1.51652982        1.22976673       -3.06612032
