   70
C70 / DATE: 7/ 1/2024 / Origin: Program Fullerene / C70 from database
 C            1.23658569       -0.01218156        4.30115251
 C            2.47625440       -0.29043311        3.61779129
 C            2.37445878       -1.61846568        3.03432167
 C            0.38029630       -1.17998986        4.16304566
 C            1.02504587       -2.09868355        3.24824913
 C           -0.95534403       -0.71773186        3.83906279
 C            0.46847912        1.14636690        3.89405801
 C           -0.92315389        0.73725369        3.78258891
 C            0.98162596        2.04633797        2.96118518
 C            2.90627758        0.61404693        2.57137662
 C            2.21461031        1.79985229        2.32969312
 C            2.86773236       -1.54283232        1.67466356
 C            3.32843485       -0.18893277        1.43441170
 C            2.16383725       -2.17425358        0.66574809
 C            0.29875821       -2.56197232        2.15703606
 C            0.95506891       -2.81906875        0.94885601
 C           -1.69521291       -1.40538568        2.88468686
 C           -1.09142332       -2.44634150        2.16886076
 C           -2.79547374       -0.75486852        2.34025407
 C           -1.75860637        1.40642956        2.88660951
 C           -2.77740174        0.69531092        2.24979326
 C            0.08769923        2.96325511        2.41465995
 C           -1.32125864        2.60751580        2.32865932
 C            0.43473209        3.71533629        1.22233519
 C            2.55020112        2.48799481        1.16591491
 C            1.66943710        3.50879909        0.62989009
 C            3.21067434        0.35364058        0.15312048
 C            3.10206163        1.73689172        0.04717126
 C            2.42787384       -1.79221142       -0.63764723
 C            2.76017255       -0.45543650       -0.90096560
 C            1.97032008       -2.61967162       -1.64782963
 C            0.25315342       -3.43694833       -0.09290571
 C            0.80210178       -3.44086942       -1.38061670
 C           -1.81879701       -3.11829021        1.19244143
 C           -1.10492522       -3.71056604        0.07292075
 C           -3.41130801       -1.26806787        1.13130893
 C           -3.04230165       -2.52237076        0.67577554
 C           -3.16492438        1.05198026        0.89158511
 C           -3.49079923       -0.16788340        0.17999696
 C           -1.78587313        2.98967908        1.00570473
 C           -0.75982801        3.81806884        0.39587026
 C           -2.47499731        2.05789016        0.23587149
 C           -0.64587898        3.83228582       -0.98720223
 C            1.77865074        3.47471552       -0.81946940
 C            2.60450530        2.32885944       -1.17824280
 C            0.67270858        3.78967466       -1.59954741
 C            2.43397615        0.12540119       -2.13790961
 C            2.22295607        1.50351468       -2.22919191
 C            1.86782824       -2.10520882       -2.99280695
 C            2.02442065       -0.68006830       -3.19954512
 C           -0.07163502       -3.35698421       -2.54534502
 C            0.56535907       -2.48665356       -3.51388109
 C           -1.98573003       -3.65672144       -1.07953673
 C           -3.08666381       -2.77073810       -0.75176126
 C           -1.43708890       -3.22635241       -2.34797505
 C           -3.03414575       -0.34798100       -1.12424373
 C           -3.02551252       -1.63514771       -1.65583914
 C           -2.08168696       -1.96631629       -2.70528471
 C           -2.16516564        1.91472969       -1.11784594
 C           -1.51157135        2.96078385       -1.76207960
 C           -2.28354750        0.66017853       -1.73962824
 C            0.52750970        3.14988631       -2.89387747
 C            1.36007118        2.00255112       -3.20471997
 C           -0.85761085        2.72101364       -3.02740620
 C            0.90686349       -0.24423684       -4.01933647
 C           -0.11693493       -1.26595343       -3.89544976
 C           -1.32793658       -0.94833114       -3.27922306
 C           -1.58384067        0.37764824       -2.92500126
 C            0.52149502        1.08182959       -3.94739681
 C           -0.84565884        1.37442761       -3.55695936
