   70
C70 / DATE: 7/ 1/2024 / Origin: Program Fullerene / C70 from database
 C            1.47948371        0.06397543        4.82319702
 C            0.71197177       -1.15330770        4.63209476
 C            1.42750796       -1.98550723        3.67991041
 C            2.66753509       -0.03620091        3.99700196
 C            2.74748611       -1.39925754        3.50634384
 C            2.64135149        1.04046465        3.01757242
 C            0.68239839        1.16184915        4.31334236
 C            1.40408659        1.77179503        3.20926861
 C           -0.65075523       -0.77088601        4.31867501
 C           -0.65883836        0.66147803        4.05858635
 C           -1.37283030       -1.59117828        3.46951261
 C            0.73620456       -2.48433281        2.57101957
 C           -0.65148666       -2.53310821        2.61916044
 C            1.39106739       -2.60255762        1.34025122
 C            3.39556640       -1.59878999        2.30292626
 C            2.77696498       -2.47447503        1.32979619
 C            3.07633013        0.75628448        1.72364456
 C            3.79512116       -0.42422369        1.54898296
 C            2.41022850        1.32981639        0.62508532
 C            0.67584057        2.15011568        2.09543297
 C            1.27839636        2.12497499        0.83758087
 C           -1.33181492        1.14257207        2.93628314
 C           -0.71315053        2.13388020        2.17810752
 C           -2.40169933       -0.99426730        2.64379176
 C           -2.33372917        0.36537373        2.34403097
 C           -1.40054090       -2.66389370        1.38503219
 C           -2.64365498       -1.93542430        1.57244488
 C            0.66080423       -2.51769573        0.13676431
 C           -0.73648076       -2.57141972        0.16331483
 C            1.31522659       -2.36884127       -1.09645026
 C            3.46025811       -2.20848310        0.08699363
 C            4.07750435       -0.89126408        0.21535141
 C            2.69740852       -2.19171131       -1.13787069
 C            2.78257188        0.99130928       -0.68492592
 C            3.61700140       -0.10616365       -0.90493990
 C            3.22333461       -1.07855212       -1.90079091
 C            2.02911185        1.46024637       -1.76708676
 C            0.56899309        2.64325759       -0.24731353
 C            0.96639359        2.34242850       -1.55167271
 C           -1.42970542        2.73665771        1.16312470
 C           -0.70496807        3.16312241       -0.01657718
 C           -2.97097069        0.83542662        1.18944199
 C           -2.65560347        2.10448516        0.71266490
 C           -3.31205518       -1.48760504        0.45233132
 C           -3.61411882       -0.06887698        0.34406981
 C           -1.47111967       -2.24025250       -0.97929552
 C           -2.81686847       -1.89765434       -0.84374875
 C            0.58240091       -1.99456957       -2.22763979
 C           -0.81328081       -1.97019667       -2.18101496
 C            2.47502875       -0.62827560       -2.96357584
 C            2.11591479        0.77433578       -2.98206926
 C            1.24651676       -1.33190017       -3.26345545
 C            1.04502266        0.89065460       -3.95315718
 C            0.50350095       -0.45438529       -4.14583397
 C            0.16726515        2.74239989       -2.63006818
 C            0.18810969        1.97506899       -3.86440078
 C           -1.66641380        3.22900445       -1.09652431
 C           -2.81078564        2.41574255       -0.70190855
 C           -1.20616747        3.16260808       -2.39804909
 C           -3.74319846        0.22686546       -1.07741560
 C           -3.42219146       -0.99788457       -1.80149850
 C           -3.31644867        1.45645327       -1.57856607
 C           -1.53586217       -1.46551012       -3.27004423
 C           -0.86399429       -0.64013547       -4.26028396
 C           -2.86208056       -0.90590945       -3.06149492
 C           -1.17877145        1.83655065       -4.33455772
 C           -2.04521837        2.52026745       -3.39085893
 C           -3.05738461        1.57825263       -2.94340380
 C           -1.71212085        0.50368453       -4.54429142
 C           -2.91559947        0.37329525       -3.74234841
