   70
C70 / DATE: 7/ 1/2024 / Origin: Program Fullerene / C70 from database
 C            1.51335962        0.00272957        4.55228366
 C            0.72645072       -1.17719353        4.24413225
 C            1.53247733       -2.03730835        3.40688831
 C            2.68629469       -0.01479130        3.69427746
 C            2.70715986       -1.27834606        3.00109120
 C            2.67641150        1.19040100        2.90176818
 C            0.72347713        1.16500728        4.19162641
 C            1.52047357        1.98095285        3.30266461
 C           -0.55299614       -0.74508988        3.72736588
 C           -0.56112387        0.70804598        3.70915203
 C           -1.08153055       -1.41988117        2.63455501
 C            0.90077228       -2.80967361        2.43743489
 C           -0.45579474       -2.58092614        2.16492082
 C            1.71396066       -3.32171065        1.42891006
 C            3.07178150       -1.31716114        1.65961235
 C            2.87056243       -2.53832674        1.02774183
 C            2.99156097        1.12383722        1.54555936
 C            3.04328203       -0.12823626        0.89891799
 C            2.72691133        2.26967405        0.79939182
 C            0.87274380        2.71603466        2.31767874
 C            1.65724988        3.14423739        1.25296151
 C           -1.10977156        1.34987409        2.60601596
 C           -0.49597492        2.50199861        2.10309109
 C           -1.98738123       -0.75226919        1.81160365
 C           -2.00351948        0.64777903        1.79794442
 C           -2.70424166       -1.47635501        0.86133549
 C           -1.07037465       -3.29549974        1.14035362
 C           -2.25810421       -2.74686827        0.50208784
 C            1.12300105       -3.89716856        0.23395400
 C           -0.25525823       -3.89580101        0.09595104
 C            2.99982220       -2.63132323       -0.40479815
 C            1.93881640       -3.49599011       -0.89756442
 C            2.95156602       -0.18676087       -0.50705299
 C            2.96746742       -1.40949679       -1.16949490
 C            2.62842490        2.18406330       -0.64044026
 C            2.53654164        0.93205011       -1.22608792
 C            1.03173118        3.73728131        0.08557557
 C            1.74716128        3.25189292       -1.08404409
 C           -1.13916513        3.20054808        1.08503620
 C           -0.35083023        3.85085152        0.05021367
 C           -2.72221130        1.33724133        0.82103203
 C           -2.30731244        2.61197812        0.44992401
 C           -3.58998127       -0.81228750        0.02074853
 C           -3.55387827        0.63663400       -0.04369601
 C           -3.78090605       -1.31160165       -1.32980526
 C           -2.20661146       -3.11557882       -0.90633226
 C           -0.83983659       -3.51589264       -1.18067348
 C           -2.86507613       -2.31924431       -1.82918529
 C            1.30536253       -2.82564030       -2.02028292
 C            2.05036150       -1.60810723       -2.27762000
 C           -0.08341171       -2.79060599       -2.10301396
 C            1.80376278        0.76653048       -2.40582856
 C            1.36932820       -0.50691008       -2.77282014
 C            1.07549468        3.10673982       -2.28911800
 C            1.25440463        1.87735364       -3.03915644
 C           -1.05311387        3.70315022       -1.21480636
 C           -2.28143822        2.96257834       -0.96178211
 C           -0.33145079        3.46745744       -2.37723445
 C           -3.60502269        1.02796034       -1.44565528
 C           -3.73966576       -0.18018389       -2.23907623
 C           -2.76716354        2.04602936       -1.89482116
 C           -2.08529662       -1.70477648       -2.89064327
 C           -0.69147461       -1.76806087       -2.83540619
 C            0.07247349       -0.67620538       -3.26213473
 C           -2.74332497       -0.45901343       -3.25485819
 C            0.07649737        1.69835103       -3.86631823
 C           -0.92616418        2.65581208       -3.42136673
 C           -2.14243446        1.91399916       -3.13784455
 C           -0.55021975        0.38888354       -3.90764795
 C           -1.97508531        0.59232829       -3.72719104
