   70
C70 / DATE: 7/ 1/2024 / Origin: Program Fullerene / C70 from database
 C            1.62203877        0.05083485        4.73903904
 C            0.82274820       -1.14837825        4.56972996
 C            1.48899111       -1.99934243        3.59712702
 C            2.71356880       -0.00888727        3.78370989
 C            2.72374752       -1.33683188        3.20361758
 C            2.60067056        1.13364577        2.89144386
 C            0.79006121        1.18449790        4.38401784
 C            1.46339397        1.92304658        3.33210592
 C           -0.54706331       -0.74095788        4.31159769
 C           -0.55207746        0.70032730        4.11666135
 C           -1.31415936       -1.53021419        3.47218556
 C            0.71733117       -2.64447866        2.63029603
 C           -0.67353414       -2.62222838        2.75715705
 C            1.29686954       -2.99938589        1.40701710
 C            3.15679529       -1.46787890        1.89584515
 C            2.53114374       -2.46398338        1.04808251
 C            2.80257479        0.94474070        1.52183382
 C            3.32914451       -0.26903321        1.08557979
 C            2.13667455        1.77671622        0.61166227
 C            0.68241411        2.52667047        2.36121701
 C            1.24781310        2.73217788        1.10856851
 C           -1.23300671        1.25212127        3.03298255
 C           -0.70517997        2.40282533        2.44969331
 C           -2.22985944       -0.89317536        2.54183483
 C           -2.12714321        0.47124671        2.29083602
 C           -1.50957908       -2.92180274        1.61053158
 C           -2.41044303       -1.79641743        1.41993648
 C            0.51497391       -3.58392949        0.41384062
 C           -0.93503224       -3.51023558        0.50055772
 C            0.87639958       -3.38872754       -0.98381926
 C            2.75523858       -2.05200834       -0.32790615
 C            3.16638396       -0.66120978       -0.29915773
 C            1.86332672       -2.45881692       -1.31447867
 C            2.13395399        1.46765883       -0.75824177
 C            2.57105803        0.21103688       -1.19228025
 C            1.51250329        2.33367243       -1.67058199
 C            0.58248907        3.57599158        0.23326082
 C            0.69917676        3.35677113       -1.19394325
 C           -1.48348214        3.08432860        1.52456536
 C           -0.80478676        3.88699983        0.52371302
 C           -2.63217046        0.97395367        1.08822640
 C           -2.53268056        2.34378806        0.84981000
 C           -2.57773337       -1.25685694        0.14816716
 C           -2.88424046        0.09804672        0.02443158
 C           -1.42924052       -3.15085905       -0.81527784
 C           -0.35881824       -3.42875789       -1.75138675
 C           -2.18656553       -1.99103025       -0.97842640
 C           -0.39380967       -2.80732952       -2.98640391
 C            1.68740856       -1.65237396       -2.44307029
 C            2.08753812       -0.30740037       -2.38754197
 C            0.78226333       -2.07921033       -3.41474817
 C            1.31983367        1.92133049       -2.98974363
 C            1.73159178        0.58953990       -3.38456678
 C            0.03141494        2.17863082       -3.61747295
 C           -0.61871490        3.53878520       -1.78656115
 C           -1.55842145        3.79541205       -0.71250760
 C           -2.64700577        2.86290066       -0.50452120
 C           -0.99100709        2.70598547       -2.83592865
 C           -3.22136534        0.59941371       -1.22714212
 C           -2.97728858        1.99767845       -1.53344579
 C           -2.22560809        2.04692745       -2.78126953
 C           -2.28709482       -1.42485510       -2.25361058
 C           -1.52654702       -1.95370662       -3.29742946
 C           -2.88698896       -0.17666843       -2.40778025
 C           -2.39585085        0.74987576       -3.42121026
 C            0.35084310       -1.17546023       -4.46326240
 C            0.87685887        0.16883380       -4.47672809
 C           -0.24829594        1.08706699       -4.53257229
 C           -1.10105731       -1.08786524       -4.38483696
 C           -1.46338543        0.31681796       -4.35302835
