   70
C70 / DATE: 7/ 1/2024 / Origin: Program Fullerene / C70 from database
 C            1.38009330       -0.09672010        4.18003869
 C            2.43046674       -0.23608197        3.18837682
 C            2.28775197       -1.54669634        2.57146903
 C            0.53384793       -1.27569295        4.09798785
 C            1.02568095       -2.10639862        3.00999663
 C           -0.84844864       -0.83647748        4.07328464
 C            0.52729975        1.07432653        4.13940690
 C           -0.85465636        0.61945455        4.09953187
 C            0.91970011        2.16078067        3.36874217
 C            2.78164509        0.85124765        2.39043211
 C            2.11863234        2.06878848        2.54324596
 C            3.48642157        0.60512572        1.21702891
 C            2.66780480       -1.70520051        1.24753346
 C            3.50949306       -0.74816374        0.68654489
 C            1.89727998       -2.50913114        0.40788347
 C            0.12940858       -2.58557417        2.05875350
 C            0.56276133       -2.78902008        0.74464754
 C           -1.74095417       -1.51315869        3.25381197
 C           -1.23399123       -2.51632033        2.32689395
 C           -2.79834271       -0.78121205        2.57487303
 C           -1.79623719        1.32396429        3.35425378
 C           -2.78906179        0.60533899        2.57165613
 C           -0.07449763        2.92442508        2.63081179
 C           -1.39214683        2.49444945        2.59176676
 C            1.92838299        2.93875925        1.39209917
 C            0.54978081        3.40333755        1.41199543
 C            3.37014211        1.51993235        0.09035551
 C            2.51565431        2.61825053        0.16907778
 C            3.64130637       -0.65905114       -0.75821884
 C            3.40443686        0.72536986       -1.12977477
 C            2.35266087       -2.72107689       -0.88892395
 C            3.10554388       -1.66633824       -1.54270241
 C            1.46209382       -3.28563624       -1.87706578
 C           -0.36382877       -3.16363994       -0.24348422
 C            0.07283419       -3.48374157       -1.52632041
 C           -2.17876364       -2.61215837        1.23485105
 C           -3.09367669       -1.48703731        1.34308774
 C           -1.73293177       -2.97630991       -0.02892733
 C           -3.40526668       -0.78037965        0.18645691
 C           -2.97327878        1.31299411        1.31435625
 C           -2.09189883        2.46747718        1.31780432
 C           -3.13963122        0.59636945        0.13185001
 C           -0.16260064        3.42626575        0.21822795
 C           -1.41822729        2.80396898        0.14674395
 C            1.93026528        3.10468940       -1.00081998
 C            0.57384406        3.62565930       -0.94298689
 C            2.52070654        1.03195740       -2.16007191
 C            2.04284383        2.33290511       -2.22889151
 C            2.36177238       -1.29781443       -2.73244242
 C            1.50285079       -2.41913452       -3.04825860
 C            1.86552828       -0.00095359       -2.84560990
 C           -0.71174023       -3.04810198       -2.66606910
 C            0.13691607       -2.15662050       -3.44229324
 C           -2.56000116       -2.66610819       -1.10902762
 C           -3.44375864       -1.51613107       -0.99295080
 C           -2.03902094       -2.70126762       -2.46599834
 C           -3.44738624       -0.82418584       -2.26240449
 C           -2.57119130       -1.54781477       -3.17135843
 C           -2.75690137        1.19471627       -1.07442115
 C           -1.88657723        2.29015895       -1.06756701
 C           -3.05015034        0.56600437       -2.28199243
 C           -0.04527145        3.39698725       -2.23022925
 C            0.88419856        2.62437143       -3.04253615
 C           -1.31832357        2.71484569       -2.26589269
 C            0.61600231        0.21912794       -3.45139815
 C           -0.27421815       -0.84409727       -3.65759916
 C           -1.64219337       -0.58655755       -3.73927490
 C           -2.14655950        0.73384206       -3.40674224
 C            0.14591804        1.52035574       -3.61852707
 C           -1.26023551        1.79375745       -3.38509677
