   70
C70 / DATE: 7/ 1/2024 / Origin: Program Fullerene / C70 from database
 C            1.20815146       -0.00701019        4.25151516
 C            2.47108076       -0.30369055        3.61722644
 C            2.45312119       -1.70781411        3.24722428
 C            0.39045187       -1.21039751        4.19111558
 C            1.08002777       -2.16600853        3.35731692
 C           -0.94050376       -0.80701783        3.81058830
 C            0.40496419        1.08059598        3.72871457
 C           -0.97248834        0.64661633        3.79798172
 C            0.81433157        1.77590909        2.59788870
 C            2.84630112        0.44584254        2.43730000
 C            2.03434059        1.47540735        1.96767395
 C            3.11625537       -1.83524328        1.96358881
 C            3.38777960       -0.49268791        1.47257277
 C            2.62455280       -2.77211965        1.07288306
 C            0.45250352       -2.67139422        2.21875146
 C            1.26315404       -3.26282323        1.25498332
 C           -1.59505193       -1.48247136        2.78695238
 C           -0.83776331       -2.23368317        1.86910930
 C           -2.81031635       -0.93629063        2.38964098
 C           -1.91555316        1.25665749        2.97950372
 C           -3.02117761        0.48001912        2.64000590
 C           -0.13790846        2.53775439        1.92072430
 C           -1.50485621        2.28094935        2.11071272
 C            0.28149511        3.34878762        0.86948867
 C            2.26155973        1.93862409        0.67257481
 C            1.54825778        3.04601157        0.22957323
 C            3.22318351       -0.20535729        0.11894935
 C            2.90369743        1.10156315       -0.24800142
 C            2.80095995       -2.53757372       -0.34489545
 C            3.03594341       -1.24328871       -0.80354251
 C            0.72869391       -3.55469153       -0.05790396
 C            1.80904246       -3.35004219       -1.01487112
 C           -1.32287292       -2.44514341        0.56408170
 C           -0.55912437       -3.14311738       -0.37898789
 C           -3.32473134       -1.21344865        1.06701089
 C           -2.48363490       -1.79843381        0.13526975
 C           -3.97855725        0.96505694        1.66997094
 C           -4.12781346       -0.06852020        0.65843022
 C           -2.43826115        2.87919579        1.25939598
 C           -3.70053464        2.21330353        0.99515826
 C           -0.65789422        3.73496396       -0.17051574
 C           -1.99754019        3.43130829       -0.00778222
 C            1.39559990        3.28919487       -1.19357899
 C           -0.02662913        3.44874404       -1.44772612
 C            2.95010734        1.44340541       -1.59436107
 C            2.15566868        2.55623594       -2.08987021
 C            2.76072815       -0.93765957       -2.14090862
 C            2.89917959        0.37779747       -2.57923635
 C            1.49477865       -3.05498125       -2.33025873
 C            2.04563456       -1.84763971       -2.92914533
 C           -0.92586145       -3.09303467       -1.72390140
 C            0.10840761       -3.15466074       -2.74242679
 C           -2.58686636       -1.39738850       -1.19287982
 C           -1.89968536       -2.10877415       -2.15589574
 C           -3.86205533        0.53705173       -0.63495374
 C           -3.76771493        1.96693309       -0.43733572
 C           -2.66408547        2.67469377       -1.05386750
 C           -2.94730088       -0.08517363       -1.47348058
 C           -0.66199692        2.60073885       -2.35617547
 C           -1.88421255        2.02817243       -2.00971227
 C           -2.12427928        0.67897320       -2.30803290
 C            1.53273933        2.13371743       -3.32998394
 C            2.08444609        0.84098239       -3.68827181
 C            0.08388030        2.03434539       -3.38134847
 C            1.07841848       -1.36017883       -3.90559621
 C           -0.15063095       -2.10022300       -3.70894371
 C           -1.33302778       -1.37914257       -3.27589107
 C           -1.30844005        0.01545870       -3.23233453
 C            0.99371372        0.00272262       -4.14143095
 C           -0.25378152        0.69939182       -3.83982980
