   70
C70 / DATE: 7/ 1/2024 / Origin: Program Fullerene / C70 from database
 C            1.29795866       -0.10363159        4.22337681
 C            2.54784180       -0.38109160        3.55540185
 C            2.46202832       -1.71854725        2.99206478
 C            0.44394614       -1.27374184        4.07176461
 C            1.09183174       -2.16905836        3.14077533
 C           -0.88712013       -0.79744410        3.75881254
 C            0.52247675        1.04370012        3.79608371
 C           -0.86586972        0.64543205        3.91787596
 C            0.92062478        1.77734851        2.67462598
 C            2.97642842        0.50447685        2.49350171
 C            2.21477348        1.62226342        2.15444622
 C            3.03031825       -1.67196108        1.65454763
 C            3.51072635       -0.32330523        1.42488087
 C            2.36497987       -2.31211946        0.61978998
 C            0.40896474       -2.57122515        2.00079913
 C            1.15048937       -2.95100220        0.88768473
 C           -1.57576694       -1.33721201        2.67494492
 C           -0.95837893       -2.29719290        1.85568380
 C           -2.70538522       -0.66082944        2.21636343
 C           -1.82093910        1.38902774        3.25067315
 C           -2.87293957        0.68759568        2.53578428
 C           -0.04501695        2.51041010        1.96939427
 C           -1.37723057        2.46673346        2.38510642
 C            0.28139012        3.14905084        0.76947293
 C            2.56398502        2.28506271        0.98494996
 C            1.58536447        3.10522850        0.30036234
 C            3.49815852        0.18429245        0.12885110
 C            3.31658136        1.55744795       -0.02538921
 C            2.66929663       -1.94067535       -0.68864065
 C            3.20108401       -0.66951854       -0.94006458
 C            2.16045669       -2.70135343       -1.73649971
 C            0.50431307       -3.63794560       -0.12521516
 C            1.07197340       -3.61957258       -1.46070989
 C           -1.64526393       -2.81373204        0.74534616
 C           -0.93326412       -3.49008013       -0.24815819
 C           -3.45871919       -1.21439282        1.19169925
 C           -2.87858934       -2.27028420        0.38763764
 C           -4.20148708       -0.33784321        0.30017318
 C           -3.39029729        1.60748174        1.53463831
 C           -2.44006630        2.70492398        1.42312463
 C           -3.99851410        1.09601465        0.39503963
 C           -0.72396511        3.51954485       -0.11979497
 C           -2.11328811        3.21195056        0.17548233
 C           -0.52015588        3.31792362       -1.54477074
 C            1.82509411        2.99335613       -1.13315759
 C            2.96360325        2.10193716       -1.32385234
 C            0.74061573        2.96012001       -2.01401954
 C            3.18647540       -0.15445811       -2.23823052
 C            3.01226417        1.27564468       -2.43518018
 C            1.86184124       -2.06237317       -3.00294253
 C            2.44485107       -0.83967258       -3.28662108
 C           -0.00092744       -3.32279911       -2.39678744
 C           -1.21739184       -3.16887736       -1.63792930
 C            0.43287841       -2.22282381       -3.22599004
 C           -3.10963821       -1.93705840       -1.01082476
 C           -3.91030134       -0.73961401       -1.06595919
 C           -2.05682057       -2.09654440       -1.89953491
 C           -3.58661161        1.56832892       -0.91839826
 C           -2.70728360        2.63664590       -1.02288487
 C           -1.67976926        2.60219104       -2.04887475
 C           -3.37434811        0.40483208       -1.76359139
 C           -0.37142307       -1.08915875       -3.34422808
 C           -1.55090604       -0.97610934       -2.58809224
 C           -1.47931906        1.44500983       -2.79611632
 C           -2.17291091        0.28074532       -2.45881961
 C            0.81524619        2.19629400       -3.17813071
 C            2.02890614        1.46291367       -3.48218716
 C            1.64402594        0.15309427       -3.97811758
 C           -0.31640626        1.35562890       -3.54405147
 C            0.19452129        0.05059740       -3.90739460
