   70
C70 / DATE: 7/ 1/2024 / Origin: Program Fullerene / C70 from database
 C            1.23786475        0.01670207        4.19418539
 C            2.54483435       -0.29454077        3.66341430
 C            2.55810499       -1.70966741        3.34256788
 C            0.41298607       -1.17680476        4.07104799
 C            1.18277823       -2.17302955        3.36061969
 C           -0.86117898       -0.76930470        3.52419726
 C            0.49503794        1.11403694        3.60744646
 C           -0.87832004        0.67895620        3.47407592
 C            1.04455917        1.86108165        2.57034811
 C            3.00210575        0.41947045        2.48926030
 C            2.24394439        1.45674452        1.96331382
 C            3.31807803       -1.87893396        2.12028170
 C            3.56909653       -0.54973688        1.56910046
 C            2.92959999       -2.88945793        1.25640206
 C            0.65974195       -2.75232763        2.20578378
 C            1.54767357       -3.35500755        1.31207233
 C           -1.39969900       -1.45948084        2.44846761
 C           -0.63316936       -2.42129339        1.77099244
 C           -2.47953662       -0.87311407        1.79286141
 C           -1.66257482        1.28484262        2.50175869
 C           -2.63504713        0.51657653        1.85698356
 C            0.18777415        2.70465260        1.86003931
 C           -1.18912195        2.44536408        1.88210114
 C            0.73079020        3.49317520        0.84625491
 C            2.49596941        1.84041417        0.65289864
 C            1.95943132        3.04355757        0.22142323
 C            3.44357055       -0.33498892        0.19142856
 C            2.89581743        0.86816345       -0.27503357
 C            3.28897257       -2.75965132       -0.13874942
 C            3.51901819       -1.42775175       -0.66867141
 C            1.11722589       -3.63675672       -0.04678716
 C            2.23577314       -3.37419120       -0.92618227
 C           -1.08062314       -2.89775225        0.53490145
 C           -0.14805547       -3.23279626       -0.44631190
 C           -3.13219916       -1.60626020        0.80806808
 C           -2.40399909       -2.68355937        0.16633709
 C           -3.92560248       -0.92658576       -0.20472723
 C           -3.54672969        1.15167819        1.02029617
 C           -4.04681470        0.45295313       -0.14785499
 C           -2.03801273        3.14327152        1.02729204
 C           -3.28547460        2.52173779        0.61679394
 C           -0.12477635        4.04687150       -0.19193022
 C           -1.48745565        3.80052286       -0.14247419
 C            1.87143755        3.31114042       -1.19541135
 C            0.56125150        3.88236433       -1.46160340
 C            2.54723951        0.99572532       -1.63017750
 C            2.07416651        2.21270463       -2.11529048
 C            2.86350713       -1.36352410       -1.95965225
 C            2.00888316       -2.53656769       -2.08363458
 C            2.38349967       -0.14448274       -2.41921312
 C           -0.35962493       -2.83884642       -1.77458273
 C            0.70842303       -2.35877982       -2.54220901
 C           -2.74130125       -2.67041579       -1.24382825
 C           -3.61912106       -1.53776245       -1.48515817
 C           -1.66154211       -2.61152075       -2.21080680
 C           -3.01073858       -0.71768093       -2.51831999
 C           -1.92705044       -1.49038662       -3.09762241
 C           -3.65000156        1.23725069       -1.30707752
 C           -3.34435642        2.56962293       -0.83774529
 C           -2.13399725        3.20709845       -1.30291780
 C           -2.84952899        0.64810179       -2.28282008
 C           -0.06827229        3.07853015       -2.49472129
 C            0.95923163        2.21550781       -3.04782677
 C           -1.35208088        2.58071988       -2.27051471
 C           -1.69645549        1.30415142       -2.74290045
 C            1.37867192       -0.16688356       -3.38522270
 C            0.48860937       -1.31389625       -3.43501338
 C           -0.85907775       -0.82098931       -3.66620298
 C            0.58171609        1.02217893       -3.63482496
 C           -0.81584565        0.62885984       -3.58899535
