   70
C70 / DATE: 7/ 1/2024 / Origin: Program Fullerene / C70 from database
 C            1.34499130       -0.06132786        4.44389606
 C            2.66267872       -0.28784630        3.88250627
 C            2.67418625       -1.61988108        3.30444187
 C            0.52843710       -1.22822991        4.15116018
 C            1.32282566       -2.15315387        3.37168188
 C           -0.72307089       -0.76666903        3.59608007
 C            0.60185409        1.11699464        4.03310453
 C           -0.70743373        0.68518442        3.57145476
 C            1.25436896        2.12690222        3.34005495
 C            3.16706152        0.63579844        2.88148957
 C            2.55366376        1.87148371        2.72461672
 C            3.32081289       -1.53969821        2.00683117
 C            3.50467466       -0.13090600        1.69313435
 C            2.87790640       -2.38963256        1.00825435
 C            0.77440854       -2.71942267        2.22280904
 C            1.64572706       -3.13180872        1.22408609
 C           -1.26347021       -1.42627586        2.50608672
 C           -0.56297880       -2.47232754        1.88858387
 C           -2.24790914       -0.76563212        1.78789025
 C           -1.31200851        1.34644794        2.49896530
 C           -2.15387616        0.62193880        1.64148373
 C            0.48851249        2.94521810        2.41792325
 C           -0.82165125        2.59622972        2.10333148
 C            2.53771110        2.48181161        1.40664893
 C            1.37700967        3.35224619        1.34292664
 C            3.13722786        0.35880959        0.43711237
 C            2.87203349        1.72435266        0.28905872
 C            2.83368647       -1.90122948       -0.35599840
 C            2.81684234       -0.53441763       -0.59439235
 C            1.11604406       -3.46449096       -0.07972108
 C            1.90018331       -2.74393925       -1.07305622
 C           -1.11071387       -3.05370787        0.73507725
 C           -0.25700772       -3.55263538       -0.26509592
 C           -2.99896450       -1.50756186        0.89041828
 C           -2.44912249       -2.77231587        0.44266079
 C           -3.57084372       -0.84446455       -0.26442287
 C           -2.69250632        1.23647149        0.50792446
 C           -3.16783536        0.45307289       -0.54411573
 C           -1.41325088        3.24884281        1.02919607
 C           -2.48122063        2.59145146        0.30424483
 C            0.82223085        3.65440590        0.10271397
 C           -0.55079948        3.88893499        0.04665688
 C            2.52612223        2.22300641       -0.96009184
 C            1.50879951        3.26248847       -1.04980631
 C            2.24719742       -0.06362276       -1.77677860
 C            2.30981500        1.29730576       -2.05365664
 C            1.24462871       -2.24126904       -2.19185549
 C            1.44923142       -0.90672938       -2.56491971
 C           -0.68748531       -3.61472408       -1.58879301
 C            0.08115123       -2.89875782       -2.59431844
 C           -2.98978281       -3.03393344       -0.87729167
 C           -3.63462928       -1.81333816       -1.33973993
 C           -2.09038521       -3.47987875       -1.91270056
 C           -0.85664624       -2.25220115       -3.49806667
 C           -3.05947662       -1.45940672       -2.62121532
 C           -2.19942010       -2.55658812       -3.03063507
 C           -2.89945422        0.82526827       -1.86811515
 C           -2.62020076       -0.15502985       -2.82508666
 C           -2.46452344        3.09639273       -1.05447433
 C           -1.24296427        3.86707118       -1.22860357
 C           -2.55241290        2.14490512       -2.14571350
 C            0.80490031        3.08322737       -2.31368379
 C            1.34954364        1.89913521       -2.96106858
 C           -0.55508745        3.35449252       -2.39627212
 C           -1.44311696        2.40491064       -3.04786993
 C            0.69113658       -0.36689812       -3.60400238
 C           -0.58641449       -0.96642027       -3.93767924
 C           -1.59357685        0.06333696       -3.74301873
 C            0.52124720        1.07315292       -3.70446392
 C           -0.90861124        1.34508110       -3.76778194
