   70
C70 / DATE: 7/ 1/2024 / Origin: Program Fullerene / C70 from database
 C            1.48825721        0.21665295        5.06422569
 C            0.68703986       -0.99263081        5.04422802
 C            1.47635897       -2.03131056        4.40981021
 C            2.66109386       -0.01606628        4.23623571
 C            2.67298582       -1.41101331        3.86269109
 C            2.65766524        0.97609871        3.18032221
 C            0.71130219        1.27122346        4.43677523
 C            1.52613662        1.85528444        3.39441934
 C           -0.61154834       -0.66095901        4.48058080
 C           -0.57669415        0.72959594        4.05556350
 C           -1.24888998       -1.58622121        3.66721655
 C            0.86504952       -2.81719363        3.35355579
 C           -0.50766711       -2.73742352        3.15988466
 C            2.73728286       -1.74656419        2.45321908
 C            1.73594249       -2.75971706        2.18840098
 C            2.93658457        0.60506358        1.86558368
 C            2.92769345       -0.75290202        1.49974866
 C            2.68087810        1.55731854        0.87478392
 C            0.89617460        2.34006327        2.25887456
 C            1.67784977        2.50231146        1.12134312
 C           -1.08972933        1.07956195        2.80627401
 C           -0.47299554        2.10564003        2.08378852
 C           -2.08789861       -1.10217981        2.58451918
 C           -1.94972116        0.20538994        2.13764866
 C           -1.03223651       -3.03680900        1.84278299
 C           -2.16831960       -2.16233039        1.60468510
 C            1.16879197       -2.82067155        0.91498752
 C           -0.15076092       -3.26412533        0.79117702
 C            2.68960406       -1.08727107        0.16813289
 C            1.74821749       -2.08111243       -0.12913037
 C            3.02402629        1.23757788       -0.43455318
 C            3.04098660       -0.16267446       -0.80145534
 C            2.46231292        1.98729833       -1.54535917
 C            1.12233323        3.22776332        0.07700940
 C            1.55959429        2.99931834       -1.28838080
 C           -1.07225944        2.55110942        0.90355987
 C           -0.32024446        3.36635743        0.05927115
 C           -2.34586654        0.51612090        0.83882103
 C           -2.12691459        1.80871057        0.36803625
 C           -2.47052121       -1.84413445        0.28664218
 C           -2.67553479       -0.50709950       -0.06435783
 C           -0.70619416       -3.34410770       -0.47579218
 C           -1.99941794       -2.71231716       -0.68660797
 C            1.23236977       -2.20388430       -1.42741348
 C            0.11155700       -3.00505360       -1.62039221
 C            2.50364179       -0.28396393       -2.13907707
 C            2.19298761        1.05310681       -2.62248419
 C            1.63743712       -1.32594332       -2.44318032
 C            1.08488008        1.22212898       -3.45083300
 C            0.40563505        3.15929115       -2.15512328
 C           -0.72543997        3.54265728       -1.32055399
 C            0.19845790        2.29209252       -3.22937366
 C           -2.69591281        2.18709328       -0.84447097
 C           -1.99609908        3.13932492       -1.69416423
 C           -2.95083160       -0.18109440       -1.39824822
 C           -3.23692317        1.14954424       -1.70272162
 C           -2.06903481       -2.31897842       -2.07658016
 C           -0.80857627       -2.70174077       -2.69735012
 C           -2.64642506       -1.10018536       -2.41809030
 C            0.88873934       -1.21564878       -3.61772234
 C            0.67969577        0.10848875       -4.18562494
 C           -0.35088917       -1.96000744       -3.77050580
 C           -2.48619424       -0.67425465       -3.73716731
 C           -0.59498709        0.10127066       -4.87116220
 C           -1.29940763       -1.09917401       -4.45719644
 C           -1.05250641        2.32357541       -3.85170084
 C           -2.20582227        2.73683026       -3.07186690
 C           -3.14305755        1.62752196       -3.06798573
 C           -1.48988398        1.21906768       -4.67958947
 C           -2.72415790        0.70630911       -4.09858297
