   70
C70 / DATE: 7/ 1/2024 / Origin: Program Fullerene / C70 from database
 C            1.34907362       -0.28653443        5.19879249
 C            0.49864716       -1.44819397        5.06247009
 C            1.07664846       -2.29604515        4.03295368
 C            2.45101850       -0.44129842        4.26450493
 C            2.17986145       -1.58427304        3.42381316
 C            2.61636091        0.82717229        3.61128491
 C            0.58387943        0.87191160        4.76566063
 C            1.44205173        1.63681395        3.90301460
 C           -0.78540434       -0.99122854        4.56069087
 C           -0.66776597        0.40989232        4.21382453
 C           -0.00671655       -2.70352082        3.17400443
 C           -1.16714452       -1.90337066        3.51185135
 C            0.24053781       -2.86313205        1.81942860
 C            2.17794369       -1.41129544        2.03645523
 C            1.35684851       -2.22780063        1.24906185
 C            3.05379569        0.84714176        2.29738389
 C            2.74625597       -0.25594044        1.47235656
 C            3.02046613        2.10642789        1.72821036
 C            0.88293800        2.31893746        2.82978349
 C            1.81631763        2.88339774        1.97523439
 C           -1.02329333        0.80394861        2.92077930
 C           -0.31965556        1.83574695        2.27496721
 C           -1.88675870       -1.41053794        2.43673054
 C           -1.85312410       -0.03218659        2.16905654
 C           -0.88184958       -3.02466806        1.01650844
 C           -2.00954796       -2.26622722        1.35089068
 C           -0.65503233       -3.38135375       -0.30195362
 C            1.42124406       -2.11945747       -0.14349882
 C            0.59084097       -2.94220941       -0.89835452
 C            2.70927008       -0.09043780        0.07339581
 C            1.93605081       -0.95183493       -0.71415077
 C            3.36250126        2.24347764        0.33971006
 C            3.21022062        1.07828658       -0.49684801
 C            1.38368283        3.42081583        0.71409002
 C            2.50297767        3.27799585       -0.19840901
 C           -0.66026032        2.17197584        0.94912484
 C            0.11086973        3.11521231        0.25192007
 C           -2.33651534        0.41528621        0.93844330
 C           -1.67525235        1.45873607        0.28098347
 C           -2.90330341       -1.88450878        0.36644732
 C           -3.12899042       -0.46235103        0.20213420
 C           -1.70654762       -3.22260787       -1.28666933
 C           -2.82997335       -2.48389275       -0.95062316
 C            0.32483415       -2.62614031       -2.28594183
 C           -1.05870842       -2.99396348       -2.56484796
 C            1.60355251       -0.59648924       -2.03740583
 C            0.85120991       -1.46414248       -2.83811689
 C            2.66501963        1.54643290       -1.75647483
 C            2.20939019        2.91834105       -1.56433479
 C            1.87276198        0.69249133       -2.51111716
 C           -0.14509000        3.35609518       -1.09299803
 C            0.95601623        3.25042173       -2.04779134
 C           -1.99571114        1.75753349       -1.05625288
 C           -1.31517907        2.77397223       -1.71388119
 C           -3.36860685       -0.21868252       -1.20332956
 C           -3.34723198       -1.50598527       -1.88904515
 C           -2.79512391        0.88946655       -1.81072577
 C           -1.74395131       -2.31672628       -3.56409674
 C           -2.93886557       -1.55327126       -3.21506560
 C            0.31867813       -0.99996403       -4.04215816
 C           -0.96694541       -1.51522933       -4.48810867
 C            1.01916033        1.26021934       -3.45654948
 C            0.45261029        2.50180302       -3.17558591
 C           -0.99195958        2.61262564       -3.12023386
 C            0.34195134        0.42268228       -4.32839413
 C           -2.75367426        0.93469471       -3.20704460
 C           -2.89565178       -0.30624160       -3.95367317
 C           -1.79122433       -0.39137092       -4.89157804
 C           -1.73225774        1.72179103       -3.87495991
 C           -0.99817031        0.81136652       -4.73574311
