   70
C70 / DATE: 7/ 1/2024 / Origin: Program Fullerene / C70 from database
 C            1.37375398       -0.12660445        5.21973766
 C            0.51201079       -1.29596087        5.22037955
 C            1.15972838       -2.32617013        4.42788306
 C            2.55179265       -0.44368649        4.43228706
 C            2.48382949       -1.84880671        4.07079670
 C            2.66545158        0.54393156        3.36668888
 C            0.66927419        0.94277306        4.53640644
 C            1.52091273        1.43281975        3.46981282
 C           -0.72008401       -0.93785698        4.54275685
 C           -0.65165378        0.46435401        4.17625988
 C            0.24962976       -2.71760820        3.35889172
 C           -0.94473477       -1.89982404        3.48023748
 C            0.77401725       -2.96637679        2.08827407
 C            2.98858580       -2.21908208        2.83666708
 C            2.16103389       -3.03587898        1.96480273
 C            3.08062554        0.12096806        2.10227791
 C            3.54634903       -1.18820342        1.97881871
 C            2.62179371        0.81015571        0.96516520
 C            0.91585074        1.85084586        2.29604791
 C            1.65842369        1.81441053        1.12272406
 C           -1.15525079        0.82931704        2.93249069
 C           -0.47417780        1.79141420        2.19380250
 C           -1.54230092       -1.44850262        2.31558505
 C           -1.90145549       -0.10473151        2.22342405
 C           -0.01964672       -2.70549715        0.95591375
 C           -1.28515322       -2.13308467        1.13408445
 C            0.52951737       -2.77114474       -0.33571095
 C            2.76519138       -2.94817147        0.65570735
 C            3.64863345       -1.78714303        0.66827996
 C            1.90734608       -2.81911035       -0.49970624
 C            2.91975738        0.33549747       -0.32295787
 C            3.31648486       -0.98837253       -0.48711113
 C            2.51908157       -1.82840286       -1.35581501
 C            2.33466681        0.95753103       -1.42850272
 C            1.11205565        2.42812858        0.00060246
 C            1.68276614        2.17390565       -1.24240210
 C           -1.04792673        2.21668699        1.00007721
 C           -0.22195263        2.83493970        0.07162991
 C           -2.50695360        0.30973063        1.04426518
 C           -2.20180360        1.57580638        0.54053085
 C           -2.05140391       -1.79079237        0.02273259
 C           -2.88265934       -0.67601325        0.14439055
 C           -0.22802898       -2.31958802       -1.41702476
 C           -1.59488106       -2.15759552       -1.24124075
 C            1.71623040       -1.18675362       -2.27865103
 C            1.97328625        0.15349974       -2.51617302
 C            0.41099839       -1.63885796       -2.46429887
 C            1.35510662        0.72833910       -3.61401577
 C            1.20821583        2.86247853       -2.35563319
 C            1.15110372        2.16140489       -3.62298716
 C           -0.81424344        3.43258258       -1.02883127
 C           -0.01897554        3.62447247       -2.22395590
 C           -2.75355476        1.96010054       -0.68969909
 C           -2.13311982        2.97283578       -1.43032402
 C           -3.67192852       -0.30120055       -0.92938928
 C           -3.65487890        1.09828470       -1.32091400
 C           -2.37725711       -1.85803053       -2.35018863
 C           -3.59028943       -1.09554028       -2.13546350
 C           -0.35935881       -1.03322927       -3.46321865
 C            0.14730574        0.09572347       -4.12176695
 C           -1.72262527       -1.31289688       -3.52709411
 C           -0.13859624        2.42816895       -4.23746539
 C           -0.85985565        3.34146339       -3.37518055
 C           -2.17013591        2.94774998       -2.88882654
 C           -0.75182919        1.15337350       -4.56774176
 C           -3.80659418        1.15094911       -2.76512225
 C           -3.78335505       -0.21121069       -3.26891446
 C           -2.62114999       -0.33973059       -4.12719386
 C           -2.85253854        1.92306243       -3.53357606
 C           -2.12045712        0.99395424       -4.39333544
