   70
C70 / DATE: 7/ 1/2024 / Origin: Program Fullerene / C70 from database
 C            1.25840476       -0.02223728        5.04677981
 C            0.48135309       -1.20134186        4.69691420
 C            1.35803547       -2.11791463        4.01011701
 C            2.53853707       -0.12268972        4.36994432
 C            2.65002492       -1.46323535        3.84970958
 C            2.63887767        0.98394681        3.43780057
 C            0.56501587        1.13666741        4.51147855
 C            1.43577019        1.79565071        3.56743152
 C           -0.71402759       -0.75370969        4.01291685
 C           -0.71870805        0.69526249        4.03241712
 C           -1.13573137       -1.38170806        2.83784028
 C            0.95538620       -2.61584071        2.70714139
 C           -0.26740374       -2.24574919        2.15453297
 C            3.04273035       -1.62447965        2.46684504
 C            2.12696665       -2.57572222        1.85948517
 C            3.16479515        0.78185034        2.16143853
 C            3.44661456       -0.52266230        1.71183475
 C            2.95251230        1.80360646        1.23676005
 C            0.88267119        2.34892352        2.41284298
 C            1.75266354        2.61552172        1.36284991
 C           -1.26684346        1.31960999        2.92774193
 C           -0.48437174        2.17707529        2.13783020
 C           -2.13165647       -0.73409884        2.10045188
 C           -2.29550476        0.64224184        2.29997693
 C           -2.56221938       -1.30782207        0.90101954
 C           -0.44624430       -2.42870356        0.78467554
 C           -1.69800336       -2.17514565        0.23206399
 C            1.95787232       -2.52294411        0.48107367
 C            0.66840547       -2.57867820       -0.05462242
 C            3.64219906       -0.75720431        0.35277900
 C            2.94634360       -1.88365058       -0.25210207
 C            3.19931277        1.58677329       -0.17428856
 C            3.61082714        0.33909383       -0.59800028
 C            1.22757425        2.85010605        0.03113446
 C            2.16554040        2.28466082       -0.92218303
 C           -0.99803543        2.57537001        0.89133718
 C           -0.13586864        2.71432073       -0.19996549
 C           -3.05456872        1.37242490        1.40806972
 C           -2.36041183        2.39885831        0.65366005
 C           -3.62700475       -0.71870479        0.22021418
 C           -3.93623594        0.66392626        0.50981406
 C           -3.76714044       -0.90147254       -1.21481276
 C           -1.92331968       -2.51041020       -1.09889034
 C           -2.96388642       -1.83434091       -1.85546417
 C            0.50029425       -2.51881954       -1.44390902
 C           -0.77785175       -2.69683155       -1.97044548
 C            2.69587989       -1.56071756       -1.63918523
 C            3.09996335       -0.18148962       -1.85209697
 C            1.52450046       -1.99872420       -2.24828044
 C            1.66581400        1.73161235       -2.09483337
 C            2.29052304        0.60984602       -2.65801039
 C           -0.57767118        2.40475011       -1.49394938
 C            0.36407185        2.06102455       -2.47745597
 C           -2.85193459        2.34418701       -0.71052463
 C           -3.94842487        1.38884038       -0.74407502
 C           -3.97843287        0.41112810       -1.81598444
 C           -1.95132961        2.35139612       -1.76836219
 C           -3.32497741        0.73144524       -2.99721562
 C           -2.39808725        1.85316236       -2.99040243
 C           -2.44198610       -1.55228800       -3.18385011
 C           -1.11481873       -2.15025118       -3.27455511
 C           -2.70585816       -0.32196788       -3.78017862
 C            1.20941552       -1.41100507       -3.47299680
 C            1.65575909       -0.04553791       -3.70760946
 C           -0.12137842       -1.54839018       -4.03358196
 C           -0.04473151        1.74778436       -3.76923844
 C           -1.45511900        1.64184914       -4.06384547
 C           -1.69654874        0.31216400       -4.60908911
 C            0.61111822        0.64420019       -4.43324533
 C           -0.40943743       -0.33279161       -4.77567281
