   70
C70 / DATE: 7/ 1/2024 / Origin: Program Fullerene / C70 from database
 C            1.52258763        0.04901053        4.66295177
 C            0.68516459       -1.13320091        4.60537204
 C            1.48287386       -2.18496555        4.02064577
 C            2.62384636       -0.15437005        3.73617048
 C            2.58536944       -1.53429844        3.31836544
 C            2.54255553        0.87030018        2.71933652
 C            0.73896107        1.15837305        4.16356461
 C            1.51225397        1.80956240        3.12419724
 C           -0.55691663       -0.77968043        3.93960880
 C           -0.57608173        0.66401281        3.79870948
 C           -0.99810104       -1.57767016        2.88373279
 C            0.81053733       -3.19293586        3.35178656
 C           -0.49809609       -2.87797986        2.77906326
 C            1.55272779       -3.90983885        2.33743623
 C            2.79624883       -1.84969428        1.97767511
 C            2.58733540       -3.18001742        1.62715621
 C            2.61241718        0.51501053        1.37379437
 C            2.67902483       -0.83996804        0.99792659
 C            2.19849637        1.46350359        0.43610167
 C            0.80429886        2.44708418        2.11742550
 C            1.39084277        2.52617879        0.85963178
 C           -1.15914168        1.22053743        2.67224997
 C           -0.58391611        2.38227596        2.16847717
 C           -1.60132291       -0.97373428        1.77237057
 C           -1.86279749        0.40036389        1.78813978
 C           -1.78853412       -1.69973953        0.59133297
 C           -0.61253286       -3.58936989        1.51856626
 C            0.60045387       -4.37397785        1.35224509
 C           -1.15043945       -2.93537787        0.41396750
 C            2.49336950       -3.55108274        0.23616989
 C            1.27470055       -4.33390431        0.07297847
 C            2.53634948       -1.17561526       -0.36150410
 C            2.47398646       -2.50292918       -0.75994275
 C            2.23703696        1.13497713       -0.91429141
 C            2.12429035       -0.20342003       -1.27192598
 C            1.94049158        2.11550519       -1.85117209
 C            0.76920887        3.33015328       -0.09440048
 C            1.26182363        3.31277597       -1.39440285
 C           -1.29241436        3.07494131        1.20571443
 C           -0.54969131        3.72477914        0.13988885
 C           -2.48610763        1.00389890        0.69189819
 C           -2.40697562        2.39375365        0.57924707
 C           -2.44493609       -1.10764924       -0.48972039
 C           -2.82314023        0.23805249       -0.42829920
 C           -2.37706658       -1.73872844       -1.72718623
 C           -0.74640640       -3.32830683       -0.86770446
 C            0.56026318       -3.76661164       -1.04646887
 C            1.47321236       -2.87544576       -1.73695102
 C           -1.31787931       -2.69457684       -1.95640223
 C            1.35718529       -0.56840977       -2.39161374
 C            0.90633116       -1.88309908       -2.52744236
 C           -0.41267806       -2.07721385       -2.91285898
 C            1.31510598        1.71667599       -3.09627404
 C            0.78651284        0.43128365       -3.18790769
 C            0.43739589        3.79981992       -2.48826230
 C            0.56757069        2.85781654       -3.58821276
 C           -1.47572342        3.89194546       -0.96912614
 C           -2.63162063        3.03915448       -0.70046905
 C           -0.97790339        4.02179149       -2.25993626
 C           -3.33446141        0.86626122       -1.57223883
 C           -3.21465668        2.30849183       -1.72187019
 C           -2.45480265       -0.94455866       -2.93500998
 C           -1.12883413       -0.98644190       -3.53638912
 C           -0.46807951        0.21209303       -3.78550220
 C           -3.10852285        0.27180207       -2.88068848
 C           -0.74828492        2.63899709       -4.14147920
 C           -1.69864699        3.42971980       -3.37189715
 C           -2.85549548        2.59428082       -3.09970471
 C           -1.25668379        1.28533061       -4.20086690
 C           -2.64193889        1.32429847       -3.76577628
