   70
C70 / DATE: 7/ 1/2024 / Origin: Program Fullerene / C70 from database
 C            1.35087101       -0.01355842        4.92763679
 C            0.56089223       -1.19154501        4.61031726
 C            1.41377211       -2.10719395        3.89455092
 C            2.59203934       -0.10105776        4.17735657
 C            2.66485703       -1.41961065        3.59740378
 C            2.64941486        1.03759764        3.28726955
 C            0.62418309        1.14890495        4.44558558
 C            1.47058651        1.85859277        3.51777049
 C           -0.66128993       -0.74830024        3.96868792
 C           -0.65771265        0.70260047        3.96591457
 C           -1.13978806       -1.39969201        2.82714742
 C            0.92657260       -2.66590964        2.65142054
 C           -0.37172302       -2.39866942        2.20721610
 C            2.89718180       -1.53579621        2.16799496
 C            2.00582747       -2.56860511        1.68991754
 C            3.08170034        0.87905930        1.97298238
 C            3.06856100       -0.39652398        1.38109241
 C            2.92090663        1.98935706        1.15674984
 C            0.89251352        2.48381471        2.41436104
 C            1.76089433        2.83790204        1.38860397
 C           -1.20998550        1.32600793        2.86100806
 C           -0.45663187        2.23863346        2.10303705
 C           -2.11155441       -0.73559708        2.07148409
 C           -2.23621415        0.65122621        2.22540047
 C           -2.62980712       -1.35780434        0.93366738
 C           -0.66971220       -2.74948330        0.88804792
 C           -1.91106419       -2.40085684        0.35119378
 C            1.65489480       -2.57235163        0.35373716
 C            0.39528778       -3.04845473        0.03040697
 C            2.87913893       -0.51850355       -0.00349419
 C            2.26080074       -1.66954335       -0.52081834
 C            3.08175009        1.85442619       -0.27272963
 C            3.11601610        0.58216620       -0.82899076
 C            1.23094889        3.21494229        0.09426342
 C            2.24665694        2.87503357       -0.88457818
 C           -0.97452092        2.66280732        0.86553692
 C           -0.10448475        2.95848826       -0.18838524
 C           -2.99697024        1.37904274        1.33128617
 C           -2.31915133        2.42139799        0.58497547
 C           -3.65254757       -0.73406192        0.21886503
 C           -3.88687966        0.67655016        0.43640955
 C           -3.79065139       -0.97620271       -1.20673851
 C           -2.25487804       -2.85511664       -0.92166094
 C           -3.10949599       -2.04342448       -1.77093189
 C            0.15186846       -3.33538887       -1.30011544
 C           -1.21687561       -3.41324140       -1.76302709
 C            1.93896894       -1.75008613       -1.88290156
 C            0.93367126       -2.62786199       -2.29870402
 C            2.94932450        0.46214693       -2.20346341
 C            2.30991595       -0.72205822       -2.74164008
 C            1.87115495        2.71372822       -2.20586917
 C            2.45394510        1.61008422       -2.94652126
 C           -0.49723721        2.74208343       -1.51667623
 C            0.45675762        2.75680193       -2.53685668
 C           -2.75206248        2.31900036       -0.79643238
 C           -3.82926854        1.34305956       -0.85141289
 C           -3.79481741        0.31713377       -1.87764766
 C           -1.79936509        2.33168506       -1.80707926
 C           -2.98479108        0.51911688       -2.98731736
 C           -2.05891027        1.64177015       -2.99245773
 C           -2.43512481       -1.87759335       -3.05090672
 C           -1.28737627       -2.76118838       -3.05997850
 C            0.02434410       -2.21185072       -3.35525885
 C           -2.30942729       -0.61112736       -3.60623267
 C            1.38231311       -0.30149722       -3.78393540
 C            1.46429769        1.14168098       -3.89912828
 C            0.25851340        1.92263481       -3.71080531
 C           -0.96404165        1.29466258       -3.87998436
 C            0.14048535       -0.92453701       -3.86974993
 C           -1.00746789       -0.14984651       -4.07686918
