   70
C70 / DATE: 7/ 1/2024 / Origin: Program Fullerene / C70 from database
 C            1.58425298        0.01013809        4.61975101
 C            0.77595122       -1.16071162        4.34824031
 C            1.38098396       -1.88740694        3.24513440
 C            2.67778991        0.02059753        3.66496425
 C            2.52678489       -1.11942689        2.78813309
 C            2.71135682        1.33186044        3.06005156
 C            0.75863505        1.17659220        4.35287318
 C            1.49463777        2.02828549        3.45499203
 C           -0.59348345       -0.71479083        4.19401973
 C           -0.54313491        0.71529678        3.92840688
 C           -1.42622801       -1.48730867        3.40801002
 C            0.53794814       -2.46358205        2.29816150
 C           -0.82800658       -2.51896002        2.57121418
 C            0.95643550       -2.54118327        0.96995830
 C            2.69574493       -0.92852441        1.42345271
 C            2.07454712       -1.81322273        0.54302349
 C            3.11066941        1.44952521        1.73159409
 C            3.19164901        0.29101644        0.94334866
 C            2.82219370        2.66556363        1.11424159
 C            0.81185876        2.72149167        2.46603955
 C            1.62672614        3.36655964        1.54815731
 C           -1.08661616        1.20818780        2.73759024
 C           -0.45006057        2.25211218        2.04461159
 C           -2.38661865       -0.81074202        2.56587809
 C           -2.10252910        0.47851466        2.11406990
 C           -1.76249827       -2.77139284        1.48398901
 C           -2.84275678       -1.80666090        1.61884506
 C            0.11231468       -3.12125654        0.02638608
 C           -1.27197113       -3.06042232        0.21411020
 C            0.62655006       -3.40192069       -1.23026971
 C            2.42226422       -1.78841815       -0.80996176
 C            1.74743851       -2.61434622       -1.70487589
 C            3.44969015        0.41253565       -0.41960588
 C            3.03401270       -0.64799662       -1.32185795
 C            2.91658307        2.79765485       -0.32868480
 C            3.19818758        1.67642475       -1.09090834
 C            1.03364445        4.00320971        0.40217890
 C            1.85717983        3.69247694       -0.75793301
 C           -0.99652985        2.69840813        0.82902462
 C           -0.32963765        3.66443225        0.07194663
 C           -2.60648464        0.89032183        0.87943870
 C           -2.06025170        2.00551688        0.24176651
 C           -3.48730807       -1.37193324        0.47739561
 C           -3.48550945        0.05078356        0.18774416
 C           -2.12022652       -2.89622377       -0.88612047
 C           -3.23107632       -2.06077007       -0.77414217
 C           -0.28441251       -3.58923510       -2.34395902
 C           -1.68191607       -3.26116741       -2.15498990
 C            1.35911261       -2.05725913       -2.98895744
 C            0.21071815       -2.79952693       -3.46157926
 C            2.46992555       -0.02903796       -2.51345665
 C            2.39868461        1.39648672       -2.27582512
 C            1.42236624       -0.67581010       -3.15519035
 C            0.96130187        3.26998226       -1.82020113
 C           -0.38373085        3.58975364       -1.37539292
 C            1.19340521        2.06011336       -2.47612730
 C           -2.41317619        2.29132228       -1.08048556
 C           -1.44047558        2.91856778       -1.95358439
 C           -3.65626223        0.19500424       -1.24830866
 C           -3.53639410       -1.12724807       -1.84620032
 C           -3.09813742        1.29174113       -1.88213089
 C           -2.10000355       -2.46890652       -3.30023497
 C           -0.90155878       -2.06420227       -4.01731301
 C           -2.90264553       -1.27866334       -3.07378167
 C            0.25783753        0.04482015       -3.46511375
 C            0.11926007        1.37847560       -3.05350745
 C           -1.15168804        1.95246781       -2.99447508
 C           -2.32722963        1.11032172       -3.10619438
 C           -0.85320703       -0.61461813       -4.00068626
 C           -2.18687709       -0.15368721       -3.65668771
