   70
C70 / DATE: 7/ 1/2024 / Origin: Program Fullerene / C70 from database
 C            1.21030862        0.20876922        4.73065243
 C            2.46714931       -0.00884995        4.04754745
 C            2.53529328       -1.41702509        3.70161200
 C            0.39869128       -0.98896696        4.56113301
 C            1.20447103       -1.97775011        3.86887436
 C           -0.86311447       -0.58917958        3.96705457
 C            0.40313343        1.34105373        4.33489355
 C           -0.93846698        0.84931119        4.06050536
 C            0.80738029        2.13649310        3.18633180
 C            2.76225956        0.75081409        2.84271655
 C            1.88335161        1.74178901        2.39166529
 C            3.17085809       -1.52349044        2.39897906
 C            3.32752345       -0.17489640        1.87719889
 C            2.74108612       -2.52428413        1.54159540
 C            0.64601458       -2.68041840        2.80482738
 C            1.51175118       -3.22845253        1.86126349
 C           -1.26510403       -1.20624957        2.78811525
 C           -0.67855648       -2.42169054        2.43703396
 C           -2.02008515       -0.49780182        1.83855667
 C           -1.43671594        1.58026687        2.91720289
 C           -0.41815542        2.54057854        2.53694982
 C           -2.09283468        0.89939684        1.89398002
 C           -0.38116062        2.90968021        1.20641552
 C            1.87902997        2.07488330        1.03035890
 C            0.82224553        2.83411856        0.50280886
 C            3.10607897        0.07761413        0.53037172
 C            2.71185081        1.36042927        0.16638995
 C            2.72293044       -2.26963853        0.11246035
 C            2.87059354       -0.97525974       -0.36020925
 C            0.97416383       -3.74922650        0.61969551
 C            1.69322959       -3.10509731       -0.47469448
 C           -1.25696121       -3.16575340        1.41787151
 C           -0.39619374       -3.91664090        0.51472337
 C           -2.49007752       -1.16877767        0.70259557
 C           -2.30151856       -2.54866599        0.62066341
 C           -2.87742347       -0.43951593       -0.43755880
 C           -2.31184778        1.60356820        0.71314768
 C           -1.55407121        2.75858906        0.49002873
 C           -2.92628851        0.96041696       -0.36015527
 C           -1.62547310        3.40288357       -0.72885582
 C            0.81290594        3.16038694       -0.86277274
 C           -0.38252498        3.59156598       -1.45403632
 C            2.73861424        1.68437870       -1.18043464
 C            1.85637568        2.72060706       -1.67350481
 C            2.40598363       -0.67692366       -1.63790026
 C            2.69300890        0.58891313       -2.12973104
 C            0.98648373       -2.64015818       -1.58612024
 C            1.32635902       -1.40814307       -2.16225207
 C           -0.99054326       -3.86040395       -0.80347958
 C           -2.26710531       -3.18027832       -0.67681611
 C           -0.25125130       -3.20665335       -1.87018549
 C           -2.97285015       -1.08058796       -1.68959689
 C           -2.42114846       -2.34238264       -1.83662804
 C           -1.21438702       -2.45253819       -2.64151006
 C           -2.96577385       -0.31118414       -2.84332797
 C           -3.28500932        1.71729222       -1.47499535
 C           -2.65122098        3.00656458       -1.66694679
 C           -3.33899238        1.07769187       -2.76771231
 C           -0.65106306        3.31579759       -2.86013157
 C           -2.06886803        3.03278770       -2.99819701
 C           -2.47813525        1.81996272       -3.67668416
 C            1.60851857        2.42912891       -3.07635004
 C            2.03052364        1.05880128       -3.32253340
 C            0.26571901        2.57850958       -3.59743641
 C            0.50354467       -0.85324899       -3.16101724
 C           -0.80255057       -1.32391623       -3.33973153
 C           -1.80365699       -0.42442901       -3.70968108
 C           -1.45921722        0.90817771       -4.17175779
 C            0.88669517        0.32094736       -3.80847426
 C           -0.12577972        1.29631003       -4.17480144
