   70
C70 / DATE: 7/ 1/2024 / Origin: Program Fullerene / C70 from database
 C            1.07871491       -0.10667354        4.97834308
 C            2.34665813       -0.27957465        4.29788474
 C            2.29506539       -1.56067860        3.61045367
 C            0.26131569       -1.27210333        4.67271460
 C            0.91867461       -1.99259793        3.59852694
 C           -1.09269507       -0.81463689        4.47079806
 C            0.27851169        1.07251975        4.69986081
 C           -1.09876601        0.63594949        4.59483334
 C            0.74960770        2.04019428        3.81801896
 C            2.78000013        0.71752105        3.33313843
 C            2.02357013        1.86173397        3.12872555
 C            2.94897958       -1.39729260        2.33653907
 C            3.29986051        0.00542369        2.18261349
 C            2.42819470       -2.04096922        1.22331687
 C            0.28429346       -2.14077243        2.36207854
 C            1.06059823       -2.36196432        1.20829225
 C           -1.75285524       -1.13911673        3.22400682
 C           -1.07641035       -1.83479816        2.22743010
 C           -1.92742840        1.15934391        3.52278705
 C           -2.52365394        0.02270743        2.83825964
 C           -0.16847595        2.68603615        2.88974703
 C           -1.48689804        2.23858408        2.76060650
 C            1.88089944        2.38199900        1.77799684
 C            0.59132001        3.03901487        1.69728366
 C            3.19886700        0.55569980        0.90451732
 C            2.33512419        1.63834134        0.68882626
 C            3.03617011       -1.70531317        0.02814352
 C            3.44038189       -0.31836554       -0.14609253
 C            2.45083212       -2.14305087       -1.21354121
 C            0.41047586       -2.60182325       -0.01657613
 C            1.13413162       -2.58411239       -1.22075734
 C           -1.63211630       -1.83571927        0.95712776
 C           -0.98293501       -2.53581621       -0.04933805
 C           -2.87578417        0.16709956        1.50182071
 C           -2.58007744       -0.86482137        0.61181709
 C           -2.16590822        2.50487595        1.57551007
 C           -2.99306797        1.45567476        0.99899803
 C           -0.05978641        3.08858013        0.47563973
 C           -1.44998140        3.12215759        0.47537970
 C            1.71739024        1.81442927       -0.56145948
 C            0.61157930        2.66862251       -0.67351278
 C            3.07677229        0.06186023       -1.49165502
 C            2.86942904       -1.17966420       -2.21136621
 C            2.17668256        1.10293644       -1.68019715
 C            2.16474903       -1.13314092       -3.39548266
 C            0.46048233       -2.62313344       -2.44649588
 C            1.07900981       -2.07701001       -3.57775141
 C           -1.66028644       -2.73237325       -1.24474932
 C           -0.90018974       -2.91624969       -2.46191346
 C           -2.94295825       -0.73096761       -0.72674186
 C           -2.76066934       -1.83526044       -1.55069149
 C           -3.02319757        1.65604693       -0.44126532
 C           -2.17175993        2.79595889       -0.74050712
 C           -2.99635476        0.55068807       -1.28975200
 C           -0.02731709        2.81634265       -1.90019560
 C           -1.48164068        2.80535225       -1.93947727
 C            1.49500825        1.17636240       -2.90046655
 C            1.65470710        0.15175437       -3.83630392
 C            0.44806414        2.07706508       -3.05391729
 C            0.28351210       -1.55418270       -4.67597459
 C            0.58550699       -0.13335012       -4.78114377
 C           -1.74271132       -2.46662785       -3.56035938
 C           -2.80941012       -1.66309881       -2.98731120
 C           -1.15436994       -1.70619838       -4.64304253
 C           -2.62944421        0.74411655       -2.62684497
 C           -1.87196550        1.86325656       -2.97039881
 C           -0.72169686        1.70367869       -3.83956508
 C           -0.66281541        0.59749467       -4.67548135
 C           -2.68858084       -0.32248061       -3.51840664
 C           -1.74293236       -0.37548387       -4.62330086
