   70
C70 / DATE: 7/ 1/2024 / Origin: Program Fullerene / C70 from database
 C            1.21063036       -0.03488019        5.00756544
 C            0.45439938       -1.21698581        4.63015348
 C            1.37139223       -2.13740135        4.00235206
 C            2.51362284       -0.12421302        4.37004973
 C            2.64838672       -1.45612644        3.83423497
 C            2.63876322        0.99527388        3.45961462
 C            0.52609365        1.12091503        4.45480537
 C            1.44960045        1.82506556        3.59846983
 C           -0.70685219       -0.78151694        3.87713097
 C           -0.71035774        0.66897839        3.86751321
 C           -1.07179995       -1.44046314        2.69993067
 C            1.00709646       -2.69627769        2.71686755
 C           -0.23856520       -2.42965678        2.15906797
 C            3.03805400       -1.60230542        2.44542850
 C            2.16697340       -2.60412839        1.85549213
 C            3.17210726        0.81209350        2.18197917
 C            3.38210084       -0.48682973        1.68098764
 C            3.02449366        1.87828931        1.29715828
 C            0.95985213        2.45588919        2.45866539
 C            1.89039496        2.77003102        1.48171355
 C           -1.16118540        1.28687024        2.71309705
 C           -0.37743535        2.26311080        2.07567991
 C           -1.97355137       -0.79012865        1.84618660
 C           -2.09756140        0.59773973        1.95800123
 C           -2.38379432       -1.43315923        0.67077397
 C           -0.42034580       -2.77371792        0.82789650
 C           -1.66687894       -2.56174440        0.26016457
 C            1.96341708       -2.58066221        0.47948385
 C            0.69102178       -2.86357838       -0.01785342
 C            3.51788728       -0.69143736        0.30774684
 C            2.82589073       -1.81733601       -0.30144287
 C            3.21828022        1.69192405       -0.12882041
 C            3.44938824        0.42350569       -0.61896869
 C            1.43670895        3.19511039        0.17858119
 C            2.28076496        2.55779151       -0.81863898
 C           -0.83839258        2.79642431        0.85858434
 C            0.07546289        3.30334954       -0.07827853
 C           -2.78030820        1.31030964        0.99341974
 C           -2.14645886        2.50119030        0.46226531
 C           -3.23549348       -0.76586395       -0.22490191
 C           -3.41321771        0.60495172       -0.09918444
 C           -3.55330322       -1.34359667       -1.45035392
 C           -1.89392972       -3.11808959       -0.99032524
 C           -3.00901697       -2.64278862       -1.77341456
 C            0.48111937       -2.81646277       -1.39492619
 C           -0.74896604       -3.25639444       -1.87267658
 C            2.41488938       -1.42208857       -1.63977291
 C            2.74123999       -0.01818832       -1.81014124
 C            1.21023989       -1.89143883       -2.14788035
 C            1.69058118        2.15405311       -2.01155908
 C            1.80938629        0.81700903       -2.42408127
 C           -0.29553187        3.43902136       -1.41668689
 C            0.59660098        2.90173446       -2.43258188
 C           -2.54484076        2.62551416       -0.92897389
 C           -3.31629682        1.43991452       -1.28497441
 C           -1.65728014        3.16960797       -1.83747873
 C           -3.49149104       -0.51969623       -2.65163148
 C           -3.15882126        0.82892511       -2.53000107
 C           -2.59948962       -2.63289138       -3.16639947
 C           -1.16465188       -2.85591990       -3.20171504
 C           -2.84816701       -1.30378085       -3.69077624
 C            0.56277560       -1.13705544       -3.13010669
 C            0.82125895        0.23519011       -3.22971806
 C           -0.54214293       -1.68324628       -3.78162806
 C           -1.60679108       -0.80865548       -4.25061727
 C           -0.20939467        2.42639166       -3.53310619
 C           -1.60766853        2.63391011       -3.18453560
 C           -2.31752389        1.40304739       -3.48695230
 C           -0.06044651        1.04730840       -3.93774971
 C           -1.39292287        0.55826522       -4.23220803
