   70
C70 / DATE: 7/ 1/2024 / Origin: Program Fullerene / C70 from database
 C            1.25494511       -0.08251117        4.50696491
 C            2.58373871       -0.30756731        3.97096788
 C            2.61161596       -1.65430752        3.42946982
 C            0.43902697       -1.23959867        4.16937051
 C            1.24218863       -2.13314001        3.36506281
 C           -0.80629696       -0.75523679        3.62285151
 C            0.52345640        1.10420459        4.10108979
 C           -0.82145934        0.68973913        3.73988766
 C            1.15569253        2.06904051        3.32975586
 C            3.09453594        0.58779996        2.94743078
 C            2.42347134        1.77160575        2.67281313
 C            3.38098493       -1.62412516        2.20122093
 C            3.57496031       -0.22767832        1.84294914
 C            3.02178857       -2.50573008        1.19519489
 C            0.75405639       -2.58596557        2.14005455
 C            1.67671351       -3.06946368        1.21422068
 C           -1.30645772       -1.31400419        2.45676535
 C           -0.51674167       -2.19086707        1.69534139
 C           -2.36222641       -0.65255115        1.83988282
 C           -1.53171310        1.41047339        2.78196669
 C           -2.49409233        0.72826134        2.02748265
 C            0.35831966        2.85017181        2.40409281
 C           -1.00816174        2.61851829        2.29855671
 C            2.32185040        2.22047053        1.29604769
 C            1.11846330        3.01905371        1.17628495
 C            3.33977614        0.16791966        0.52442317
 C            2.65149215        1.35850713        0.26254586
 C            3.29184595       -2.12966016       -0.17823643
 C            3.46750346       -0.78112940       -0.49179580
 C            1.27153472       -3.27790555       -0.16587013
 C            2.41215522       -2.94234440       -0.99958160
 C           -0.94174853       -2.55109430        0.40918281
 C           -0.00202858       -2.89055664       -0.56460195
 C           -2.99503212       -1.28105831        0.77669340
 C           -2.24499949       -2.26464249        0.02035236
 C           -3.80674171       -0.51299849       -0.15015472
 C           -3.36843593        1.46199838        1.23223257
 C           -3.97061757        0.84997580        0.05907808
 C           -1.65647894        3.25110879        1.24428595
 C           -2.98470937        2.80918964        0.87503517
 C            0.42076265        3.04432177       -0.03120993
 C           -0.90187186        3.46828054        0.01650681
 C            2.07356882        1.56424130       -0.98684061
 C            0.84316143        2.22305370       -1.08610835
 C            3.29262591       -0.37636202       -1.81163551
 C            2.57028362        0.85797131       -2.06791775
 C            2.19106943       -2.55863740       -2.31045335
 C            2.85025852       -1.35643339       -2.78730459
 C           -0.24297544       -2.59205391       -1.91167282
 C            0.82653842       -2.52501954       -2.80861410
 C           -2.53608993       -2.06249897       -1.38700819
 C           -3.54881717       -1.01812502       -1.48900414
 C           -1.49757957       -2.12461947       -2.31321500
 C           -3.52345172       -0.13726272       -2.56204964
 C           -3.83012986        1.77954686       -1.05505375
 C           -3.10633384        2.93868527       -0.56442059
 C           -1.78099805        3.20591652       -1.10138229
 C           -3.49575524        1.29435000       -2.31174850
 C           -0.00858461        1.96539103       -2.17699703
 C           -1.33079788        2.43791268       -2.16736368
 C           -2.29634992        1.80967247       -2.95067866
 C            1.73451785        0.66510707       -3.23514468
 C            1.94887280       -0.69265318       -3.70967532
 C            0.79008334       -1.54856286       -3.88401275
 C            0.43714622        1.16758705       -3.24431658
 C           -1.61535154       -1.44272180       -3.52394598
 C           -2.61216842       -0.39551214       -3.66141091
 C           -1.89395450        0.84144781       -3.94118271
 C           -0.41766613       -0.93671113       -4.16587006
 C           -0.49218811        0.50978616       -4.04958402
