   70
C70 / DATE: 7/ 1/2024 / Origin: Program Fullerene / C70 from database
 C            1.23082739       -0.17430620        4.31232407
 C            2.53616156       -0.51233996        3.79531066
 C            2.43402523       -1.81587545        3.14999460
 C            0.39070321       -1.34786794        4.15080860
 C            1.04098318       -2.22036721        3.20181833
 C           -0.93312967       -0.87914750        3.82627863
 C            0.52031876        0.94492752        3.72032525
 C           -0.87673063        0.56874906        3.68942022
 C            1.06846660        1.59907708        2.62046469
 C            3.14717109        0.38271743        2.83624172
 C            2.44419269        1.49811281        2.37601936
 C            3.08177808       -1.70633274        1.85404571
 C            3.82213129       -0.45985058        1.86703768
 C            2.36303534       -2.04818922        0.71361844
 C            0.37997790       -2.51736520        2.01274123
 C            1.13143815       -2.69258087        0.85019909
 C           -1.68465566       -1.57493771        2.89116689
 C           -1.01156293       -2.34477710        1.92235892
 C           -2.88788411       -0.97551177        2.55567854
 C           -1.72310834        1.15862899        2.75792792
 C           -2.90565503        0.47486383        2.46969910
 C            0.21255960        2.11534501        1.63754379
 C           -1.17911458        2.01298753        1.79240997
 C            0.74477351        2.79621623        0.53413032
 C            2.99724211        2.20205483        1.31416062
 C            2.12514682        2.91128970        0.39680712
 C            4.18420800        0.10971776        0.65830657
 C            4.02589082        1.54582012        0.52249725
 C            2.71607135       -1.48432093       -0.51734323
 C            3.69005683       -0.49149876       -0.57237236
 C            1.90327494       -1.69792771       -1.63067157
 C            0.50884961       -3.18631708       -0.28336115
 C            0.96974414       -2.72883296       -1.58013336
 C           -1.67705340       -2.75859208        0.75479646
 C           -0.94024936       -3.24732647       -0.31954463
 C           -3.65878761       -1.50312920        1.45921005
 C           -2.99177278       -2.36933258        0.51566382
 C           -3.70410282        0.84320702        1.31415630
 C           -4.21622628       -0.37889165        0.72429387
 C           -2.01591668        2.53761046        0.81066958
 C           -3.25431578        1.85277622        0.48069130
 C           -0.06955742        3.11299895       -0.55580641
 C           -1.44650752        3.02646719       -0.42836303
 C            0.47003468        3.12070144       -1.83821290
 C            2.71713404        2.82929928       -0.93074405
 C            3.76555851        1.83001478       -0.87366833
 C            3.54988285        0.56496965       -1.55658762
 C            1.87423974        2.81180762       -2.02904341
 C            1.81914471       -0.71874611       -2.62999248
 C            2.51834337        0.48334101       -2.48593883
 C            1.93008433        1.66912792       -2.92669832
 C            0.84138207       -0.81354503       -3.62200184
 C           -0.16705687       -2.72937660       -2.48044645
 C           -1.36692943       -2.93915159       -1.67859753
 C           -0.19069719       -1.83390340       -3.53576653
 C           -3.37066238       -1.93158294       -0.81844806
 C           -3.99688112       -0.62422784       -0.68819714
 C           -2.50579304       -2.15654900       -1.88487805
 C           -3.28944766        1.66608788       -0.96470119
 C           -2.22778399        2.48260505       -1.53170524
 C           -3.56809542        0.41199603       -1.51295587
 C           -0.26773529        2.48349965       -2.91887263
 C            0.66512525        1.62069984       -3.63617645
 C            0.22422581        0.40302699       -4.12679212
 C           -1.57927310        2.06458601       -2.69076898
 C           -1.45218000       -1.22421208       -3.90445535
 C           -2.55878988       -1.28135527       -2.96768397
 C           -3.03092380        0.07867241       -2.75185891
 C           -1.20290144        0.17303020       -4.21588157
 C           -2.09270232        0.98123524       -3.40014706
