   70
C70 / DATE: 7/ 1/2024 / Origin: Program Fullerene / C70 from database
 C            1.28607863       -0.06026085        4.35472119
 C            2.57230454       -0.36911697        3.77595342
 C            2.55075234       -1.76294873        3.36704535
 C            0.44866822       -1.24805973        4.24288636
 C            1.17875511       -2.22963788        3.47159261
 C           -0.84843482       -0.81496030        3.76657772
 C            0.52578113        1.04619677        3.80720159
 C           -0.86125247        0.63258390        3.86836505
 C            0.98031370        1.71218959        2.66480154
 C            3.02316803        0.40856021        2.64216511
 C            2.29382551        1.51441772        2.20840988
 C            3.22151734       -1.86287643        2.08054301
 C            3.54020546       -0.51299681        1.64339621
 C            2.72921443       -2.76438246        1.15332092
 C            0.58477192       -2.79914923        2.35022332
 C            1.42170204       -3.35788546        1.38512802
 C           -1.39836423       -1.41097383        2.63263494
 C           -0.74082235       -2.48488449        2.01919301
 C           -2.43048136       -0.74255147        1.96110021
 C           -1.78149664        1.32542460        3.10834880
 C           -2.74499272        0.56254354        2.34082399
 C            0.04688404        2.39359393        1.86791079
 C           -1.29826545        2.36981433        2.22217942
 C            0.41349669        2.89637898        0.61835669
 C            2.67826971        2.06733027        0.99421643
 C            1.75802811        2.92068218        0.27445715
 C            3.42580871       -0.15682779        0.29880619
 C            3.32093628        1.19966197        0.01640211
 C            2.79011418       -2.42275744       -0.25333284
 C            2.95334716       -1.08975173       -0.63407336
 C            0.88630471       -3.74706582        0.09338341
 C            1.79833042       -3.24471836       -0.92437224
 C           -1.32587740       -3.09143118        0.91319917
 C           -0.48325346       -3.68371847       -0.11344798
 C           -2.96967351       -1.26933167        0.78101443
 C           -2.43938472       -2.44041751        0.25054633
 C           -3.72061254       -0.45327704       -0.06920925
 C           -3.28611824        1.47793040        1.36032297
 C           -2.30397161        2.54341140        1.19109919
 C           -3.91083743        0.95451728        0.24279004
 C           -0.55863756        3.14551944       -0.36191703
 C           -1.91176038        2.91469922       -0.09119996
 C           -0.16517665        3.44807229       -1.66877782
 C            2.14045337        2.86149117       -1.12255600
 C            2.89990894        1.63176677       -1.29882274
 C            1.20964165        3.21741637       -2.08252004
 C            2.46387609       -0.66713508       -1.87945829
 C            2.47280569        0.68788365       -2.22587779
 C            1.30307855       -2.82197681       -2.14666078
 C            1.79617945       -1.57639002       -2.70215877
 C           -1.00057289       -3.27875953       -1.41092574
 C           -2.21518273       -2.51927520       -1.18523356
 C           -0.12805151       -2.87910772       -2.41111490
 C           -3.51678282       -0.56680255       -1.50603070
 C           -2.51160988       -1.40741153       -1.96951598
 C           -3.83634531        1.69835300       -1.00013529
 C           -2.79887000        2.70330834       -1.14600606
 C           -3.67702269        0.74549703       -2.08707148
 C           -1.02645327        3.07480152       -2.77952742
 C           -2.28959010        2.58183822       -2.49798719
 C           -2.63690827        1.24409978       -2.95777922
 C            1.17502588        2.45995362       -3.31972250
 C            1.74739595        1.12400650       -3.33513126
 C           -0.21129391        2.35456437       -3.74039147
 C            0.77894450       -1.09728815       -3.61740509
 C           -0.47025052       -1.72917361       -3.23124342
 C           -1.56692160       -0.93315087       -2.89570592
 C           -1.62293677        0.38556556       -3.37572119
 C            0.76999038        0.24254976       -3.95142117
 C           -0.49767308        0.94982902       -3.97666213
