   70
C70 / DATE: 7/ 1/2024 / Origin: Program Fullerene / C70 from database
 C            1.47188384        0.05927950        4.46028210
 C            0.67167066       -1.12781269        4.21289091
 C            1.43573688       -2.00545660        3.35804029
 C            2.63704808       -0.00874076        3.59749062
 C            2.70145942       -1.34831782        3.05908803
 C            2.57296982        1.08943415        2.65721620
 C            0.68845486        1.20659587        4.04765544
 C            1.40740002        1.88847307        2.98778184
 C           -0.63085963       -0.70040756        3.75822519
 C           -0.65948379        0.75008081        3.76122096
 C           -1.22497953       -1.35266887        2.68822822
 C            0.79178111       -2.69101578        2.32862672
 C           -0.52115758       -2.33459321        1.96850267
 C            1.61334526       -3.30209069        1.37991435
 C            3.22705422       -1.53079898        1.78755911
 C            2.94582475       -2.75578757        1.19465114
 C            2.84270281        0.82295355        1.32013682
 C            3.41281359       -0.40513743        0.96647292
 C            2.26754789        1.63077195        0.33300515
 C            0.65766440        2.42621096        1.95255517
 C            1.20318145        2.48252901        0.66948716
 C           -1.35408390        1.38771748        2.73829381
 C           -0.72806425        2.44955846        2.08906068
 C           -2.30690717       -0.72524348        2.08098246
 C           -2.34126198        0.67697679        2.04857478
 C           -3.04466552       -1.46481320        1.17231922
 C           -1.03132160       -2.76480708        0.73570241
 C           -2.34497372       -2.46692184        0.39634616
 C            1.08926385       -3.59794141        0.05966642
 C           -0.14679642       -3.08027745       -0.28704747
 C            3.34855405       -3.00220683       -0.17237166
 C            2.18529299       -3.50680462       -0.88564104
 C            3.86254202       -0.57073405       -0.34044254
 C            3.89076864       -1.89806445       -0.93122952
 C            2.65752335        1.47244037       -1.00207624
 C            3.39918898        0.34872015       -1.36433120
 C            1.92306743        2.09517553       -2.00589827
 C            0.48424555        3.14932348       -0.32652405
 C            0.85822311        3.01178487       -1.65799219
 C           -1.45933030        3.17565231        1.16657346
 C           -0.78064353        3.65265672       -0.02418086
 C           -3.09470439        1.35244835        1.07803135
 C           -2.75300827        2.66362582        0.75373917
 C           -3.98332510       -0.79519894        0.30060525
 C           -3.94227065        0.64758333        0.22460782
 C           -2.66032001       -2.22940323       -1.00165229
 C           -3.79178345       -1.31928464       -1.04264127
 C           -0.34175410       -2.52567386       -1.55698206
 C           -1.61546752       -2.07525393       -1.91086861
 C            2.00768102       -2.69669904       -2.07324202
 C            3.16618611       -1.83783751       -2.18841355
 C            2.94054425       -0.44227813       -2.49863629
 C            0.75983148       -2.14234332       -2.32922572
 C            1.46388679        1.28744360       -3.12440116
 C            1.74452590       -0.07303268       -3.10358400
 C            0.68100331       -0.98629750       -3.10675199
 C           -0.16213984        2.91615723       -2.69500734
 C            0.14552386        1.75330826       -3.51057524
 C           -1.77757357        3.76515355       -1.07552989
 C           -3.00457368        3.15382725       -0.59083889
 C           -1.48271097        3.21017526       -2.38197330
 C           -4.01127538        1.00965580       -1.18448222
 C           -3.76059905       -0.19571975       -1.95955998
 C           -3.47531679        2.22269021       -1.59935081
 C           -2.53330423        2.25611247       -2.70937536
 C           -1.75526368       -1.18998093       -2.98109726
 C           -0.56909239       -0.58902618       -3.56813150
 C           -0.84389373        0.82164584       -3.78819420
 C           -2.80558896       -0.17983634       -2.96745639
 C           -2.21789712        1.08234634       -3.38782758
