   70
C70 / DATE: 7/ 1/2024 / Origin: Program Fullerene / C70 from database
 C            1.25089797        0.19417211        4.83019600
 C            2.47018244        0.03032049        4.06736272
 C            2.55939238       -1.37063111        3.71001759
 C            0.44133675       -1.00203537        4.62856174
 C            1.23580108       -1.94846200        3.87266236
 C           -0.83213546       -0.58197886        4.08150443
 C            0.41329031        1.33539732        4.53700182
 C           -0.93521526        0.83672650        4.32653868
 C            0.73242673        2.16627756        3.38800880
 C            2.64897126        0.79956137        2.84489243
 C            1.69937061        1.75149674        2.47358191
 C            3.17694609       -1.44869273        2.39985910
 C            3.17217772       -0.10535668        1.83595369
 C            2.80278363       -2.49946196        1.58013003
 C            0.66906107       -2.59837191        2.77902300
 C            1.54530804       -3.17664820        1.86355692
 C           -1.22190068       -1.07819279        2.84036843
 C           -0.61969444       -2.24283755        2.35637214
 C           -2.02916247       -0.30048778        1.99081326
 C           -1.53090442        1.65415598        3.29767096
 C           -0.54048379        2.63450752        2.88051262
 C           -2.28346128        1.04693477        2.30124673
 C           -0.61765775        3.09175689        1.57119608
 C            1.50126237        2.03135610        1.12044796
 C            0.50371595        2.94032772        0.75146963
 C            2.79200302        0.07535585        0.50805840
 C            2.11711688        1.23736771        0.14328124
 C            2.84522149       -2.30449955        0.14723464
 C            2.80235560       -1.00967503       -0.36989656
 C            1.03858078       -3.70405822        0.60844010
 C            1.98527375       -3.32030001       -0.42812308
 C           -1.17490705       -2.87105337        1.24715916
 C           -0.32403159       -3.63903234        0.35320470
 C           -2.42115778       -0.82013032        0.74706549
 C           -2.13267772       -2.14301673        0.43528180
 C           -2.84860137        0.03344229       -0.27117733
 C           -2.71890033        1.89719354        1.29422322
 C           -1.87581667        3.03916896        0.98012599
 C           -3.17287232        1.34650164        0.03911746
 C           -2.01568853        3.32089256       -0.43548610
 C           -2.99467724        2.38207049       -0.96362216
 C            0.42880734        3.35319372       -0.57611517
 C           -0.87496338        3.60936683       -1.17143815
 C            1.87752756        1.48573195       -1.20634865
 C            1.23308707        2.66442757       -1.56735474
 C            2.37974652       -0.82779934       -1.68872291
 C            2.01982854        0.44807339       -2.13304780
 C            1.54233966       -3.13275256       -1.72558201
 C            1.98507623       -1.94366096       -2.42767645
 C           -0.79123199       -3.42439094       -1.00674867
 C           -1.92047743       -2.51080705       -0.95484730
 C            0.13007456       -3.30056370       -2.03709007
 C           -2.70401902       -0.33876066       -1.61265661
 C           -2.06812760       -1.53971465       -1.94209238
 C           -2.92912612        2.00518424       -2.29503729
 C           -2.98873410        0.59020587       -2.61061711
 C           -0.81408391        3.22545817       -2.57220840
 C            0.53960431        2.75291641       -2.83943388
 C           -1.90758950        2.58602725       -3.15090964
 C            1.56239127        0.61109013       -3.44441901
 C            0.76173887        1.77300724       -3.79632582
 C            1.07809740       -1.77312363       -3.54166771
 C           -0.16920192       -2.41125788       -3.14653318
 C           -1.33544840       -1.64891769       -3.13318504
 C            1.01428615       -0.53435442       -4.15576624
 C           -2.39268208        0.42272812       -3.91827555
 C           -1.69744439        1.66038587       -4.24888466
 C           -0.34018419        1.31979937       -4.62836017
 C           -1.47087056       -0.67515279       -4.12041638
 C           -0.26195065       -0.12640145       -4.71207500
