   70
C70 / DATE: 7/ 1/2024 / Origin: Program Fullerene / C70 from database
 C            1.50371832        0.01698441        4.49589332
 C            0.69114390       -1.15718708        4.22224940
 C            1.44416581       -2.01643783        3.34090845
 C            2.65821140       -0.03477105        3.61908532
 C            2.71929242       -1.36789564        3.06461048
 C            2.57637838        1.07242662        2.69037384
 C            0.72549387        1.18077003        4.12350932
 C            1.41377652        1.86498202        3.04503756
 C           -0.61012906       -0.70629978        3.78612959
 C           -0.63393477        0.74187264        3.87805795
 C           -1.20360397       -1.29594498        2.67395146
 C            0.79423498       -2.65873741        2.28822548
 C           -0.49278364       -2.23656343        1.90483462
 C            1.61561151       -3.27443556        1.34320363
 C            3.24873027       -1.53411843        1.79292934
 C            2.95958110       -2.74818943        1.18271540
 C            2.82705688        0.81502369        1.34911192
 C            3.42360455       -0.39699742        0.98592285
 C            2.21066624        1.60349942        0.37232741
 C            0.63388012        2.40056875        2.02907676
 C            1.12689961        2.42624865        0.72240465
 C           -1.36859202        1.42524067        2.92102195
 C           -0.74365286        2.46207022        2.22503536
 C           -2.29049123       -0.63304592        2.10206366
 C           -2.41295359        0.74753030        2.29635230
 C           -2.98012091       -1.25876653        1.07162297
 C           -0.99063144       -2.60850285        0.64835944
 C           -2.28492953       -2.25961858        0.28891787
 C            1.10526112       -3.54555449        0.01321484
 C           -0.10680046       -2.98691173       -0.35450750
 C            3.37667445       -2.98053644       -0.18198270
 C            2.22156214       -3.48030642       -0.91115231
 C            3.87082325       -0.54346519       -0.32393944
 C            3.92356457       -1.86624665       -0.92323452
 C            2.59534663        1.46369625       -0.96601343
 C            3.38523771        0.37605320       -1.33830257
 C            1.84223637        2.07547530       -1.96191057
 C            0.36830535        3.05991983       -0.26880930
 C            0.71910586        2.91536868       -1.60334950
 C           -1.49793459        3.20018245        1.32624745
 C           -0.92055292        3.50170240        0.02811793
 C           -3.29679862        1.49221660        1.52112553
 C           -2.88565431        2.82426451        1.12044271
 C           -3.81803152       -0.48365265        0.17235198
 C           -3.97053079        0.87777478        0.39064638
 C           -2.58002903       -2.01507703       -1.11348239
 C           -3.60747162       -0.98429378       -1.17671913
 C           -0.28067146       -2.49056738       -1.65062864
 C           -1.53914636       -2.03013952       -2.04311196
 C            2.07825814       -2.68410163       -2.11285140
 C            3.22503625       -1.80478053       -2.19438940
 C            2.98208278       -0.40890065       -2.49815238
 C            0.83472721       -2.15066889       -2.42287344
 C            1.45683627        1.28696457       -3.12066881
 C            1.79840507       -0.05988545       -3.14000941
 C            0.77839758       -1.01594030       -3.23029994
 C           -0.32817918        2.71818107       -2.59619349
 C            0.12986591        1.70234108       -3.53403500
 C           -1.96836010        3.35879453       -0.97362401
 C           -3.19349175        2.98728240       -0.28823261
 C           -3.91055218        1.80683201       -0.73017654
 C           -1.66304637        2.76252158       -2.19406567
 C           -3.63476579       -0.10601850       -2.25218246
 C           -3.66709958        1.32805803       -2.01048457
 C           -2.60632588        1.93210321       -2.80545560
 C           -1.64722016       -1.28164247       -3.21455768
 C           -0.45462076       -0.65915845       -3.76332242
 C           -0.75672519        0.74365125       -3.99519626
 C           -2.74294783       -0.34198458       -3.37182488
 C           -2.17539306        0.93674350       -3.77033919
