   70
C70 / DATE: 7/ 1/2024 / Origin: Program Fullerene / C70 from database
 C            1.08574226       -0.17665266        4.88540433
 C            2.33197788       -0.41053108        4.17800765
 C            2.21718686       -1.68431273        3.48818098
 C            0.22719485       -1.32898484        4.66024223
 C            0.85256094       -2.15061736        3.64238873
 C           -1.11389752       -0.84390164        4.42781076
 C            0.31154199        1.01637065        4.58513763
 C           -1.07074637        0.61068060        4.41254965
 C            0.83545702        1.98385355        3.73601622
 C            2.79217464        0.57157357        3.21350743
 C            2.14448959        1.79491068        3.11996959
 C            2.73422000       -1.51330674        2.14092191
 C            3.14953920       -0.13056659        1.99042927
 C            2.05854337       -2.11148179        1.08582204
 C            0.14826432       -2.49648078        2.49096249
 C            0.88239477       -2.81465012        1.34911517
 C           -1.80534315       -1.26819802        3.22742131
 C           -1.21277997       -2.17784905        2.35528241
 C           -1.80154758        1.06171066        3.23717128
 C           -2.44112569       -0.10126568        2.65462077
 C           -0.02855335        2.60893164        2.74435958
 C           -1.23175456        2.00600780        2.38779496
 C            2.12153171        2.47389425        1.83879203
 C            0.83212979        3.13226733        1.70184891
 C            2.95903278        0.49316820        0.75719160
 C            2.67391139        1.86204389        0.71662270
 C            2.27299162       -1.62183081       -0.19986796
 C            2.70123645       -0.29857268       -0.36842921
 C            1.75698224       -2.33328269       -1.28054585
 C            0.21672214       -3.41481217        0.29145785
 C            0.75096216       -3.26880088       -1.05052428
 C           -1.81359939       -2.34754894        1.10485165
 C           -1.21771204       -3.23106826        0.20971339
 C           -2.68378692       -0.11141901        1.29104326
 C           -2.64725650       -1.33074964        0.62207825
 C           -1.64078528        2.05190010        1.05353475
 C           -2.49470820        1.05875350        0.55811119
 C            0.32181642        3.30414428        0.42176096
 C           -0.99675828        2.92018168        0.16777282
 C            2.41552407        2.45875608       -0.51158921
 C            1.23594286        3.29995282       -0.62728244
 C            2.66555019        0.29468917       -1.63278276
 C            2.50817647        1.67094255       -1.72502859
 C            1.96409108       -1.85897719       -2.56893466
 C            2.36208869       -0.47698734       -2.74930427
 C            1.00303727       -2.18636655       -3.60948982
 C           -0.36825527       -3.36960953       -1.97445815
 C           -1.58707476       -3.21173637       -1.19639686
 C           -0.26413321       -2.78230688       -3.22891892
 C           -3.11127936       -1.36547222       -0.68746793
 C           -2.57081292       -2.33410634       -1.62509179
 C           -2.88593316        1.08199093       -0.78180219
 C           -3.28804573       -0.10719958       -1.39416479
 C           -1.51488538        3.08270503       -1.11407043
 C           -2.56031540        2.18351381       -1.56620718
 C            0.75981344        3.22281257       -1.99487318
 C            1.55406006        2.21228035       -2.68223468
 C           -0.60306669        3.29572491       -2.22839140
 C            1.52783294        0.09457161       -3.79788239
 C            0.72524892       -0.97552421       -4.36246122
 C            0.95770105        1.35026165       -3.60211370
 C           -1.32754752       -1.91291681       -3.71188987
 C           -2.45129982       -1.68683675       -2.92283156
 C           -2.99371235       -0.34299274       -2.80077557
 C           -0.71351915       -0.80812349       -4.43526157
 C           -2.41306738        2.02151058       -3.00284573
 C           -1.14510307        2.61759269       -3.38820244
 C           -0.34942404        1.58931889       -4.03545915
 C           -2.46943464        0.68668709       -3.57024804
 C           -1.24040681        0.47233709       -4.32006799
