   70
C70 / DATE: 7/ 1/2024 / Origin: Program Fullerene / C70 from database
 C            1.56162553        0.05913609        4.36786017
 C            0.76716657       -1.12135740        4.08181110
 C            1.50045792       -1.92857099        3.13689347
 C            2.66435217        0.08830321        3.42187086
 C            2.63889939       -1.14530061        2.67508837
 C            2.58671564        1.32712686        2.68574295
 C            0.73244577        1.22095299        4.10842017
 C            1.44822372        2.07558640        3.18520315
 C           -0.55904584       -0.69243024        3.70682591
 C           -0.58438823        0.76127673        3.71696122
 C           -1.19791641       -1.34430112        2.66364172
 C            0.79544359       -2.66166735        2.18902833
 C           -0.57516733       -2.41944209        2.00670328
 C            1.53226913       -3.12784006        1.11330852
 C            2.90850710       -1.12485909        1.30941491
 C            2.61327781       -2.29245147        0.61252195
 C            2.79959308        1.32048134        1.31126803
 C            2.92698945        0.10120672        0.61710808
 C            2.42338982        2.46233367        0.60708979
 C            0.71489164        2.80166664        2.25832333
 C            1.38121006        3.24877552        1.12044179
 C           -1.22629380        1.42604703        2.67386840
 C           -0.67098632        2.61408330        2.19154429
 C           -2.22899481       -0.66988798        2.02368434
 C           -2.13417443        0.71957910        1.87499502
 C           -3.05350886       -1.39653191        1.17654872
 C           -1.26088043       -3.04578144        0.95329155
 C           -2.60434939       -2.71111582        0.76219802
 C            0.84834103       -3.70131902       -0.02216738
 C           -0.54178040       -3.70442361       -0.06031622
 C            2.50573124       -2.26272156       -0.83046975
 C            1.59340181       -3.32466387       -1.21379730
 C            2.89304509        0.10217683       -0.78868391
 C            2.44091647       -1.03312150       -1.46870949
 C            2.78629539        2.54781998       -0.72943598
 C            2.91856471        1.31544995       -1.47726355
 C            2.15998785        3.52593671       -1.59820625
 C            0.74904099        4.20699097        0.33367491
 C            1.12003423        4.37063067       -1.05671572
 C           -1.39644664        3.34458856        1.25830881
 C           -0.69542533        4.29010691        0.40309431
 C           -2.66230058        1.31925049        0.72531001
 C           -2.35827566        2.64044778        0.43221273
 C           -3.58227914       -0.73811073       -0.00096179
 C           -3.06143387        0.50324314       -0.32569181
 C           -3.26858264       -3.00258846       -0.49294092
 C           -3.73113002       -1.73615299       -1.03926952
 C           -1.14903332       -4.03622284       -1.27361243
 C           -2.52704032       -3.67651961       -1.53027472
 C            0.91629750       -3.22399871       -2.41688421
 C           -0.41959399       -3.78899094       -2.50477959
 C            1.63975591       -0.87634795       -2.60641630
 C            0.89465636       -1.94098459       -3.09826825
 C            2.08634065        1.44398175       -2.65970341
 C            1.59379031        2.80367480       -2.72431083
 C            1.21881338        0.40230604       -2.94161871
 C           -0.07971273        4.15959060       -1.85355468
 C           -1.20636630        4.13028683       -0.94958876
 C           -2.06397998        2.96406997       -0.94975177
 C            0.16074267        3.00762551       -2.69965337
 C           -2.48841131        0.70661073       -1.58795960
 C           -0.15802376        0.65004557       -3.02282142
 C           -1.83036857        1.91160742       -1.83567411
 C           -0.66267441        1.88454511       -2.60834427
 C           -3.03755931       -1.52374785       -2.29147761
 C           -2.53821693       -2.81898837       -2.70751919
 C           -1.22925180       -2.89244939       -3.31394539
 C           -0.47533975       -1.66815096       -3.48456745
 C           -2.23605008       -0.38811856       -2.41781000
 C           -1.02623128       -0.43838282       -3.12109255
