   70
C70 / DATE: 7/ 1/2024 / Origin: Program Fullerene / C70 from database
 C            1.38100106        0.12334723        4.86748103
 C            0.59654718       -1.09014288        4.72065310
 C            1.44511158       -2.09277215        4.12014539
 C            2.61616624       -0.06033672        4.12416437
 C            2.71866705       -1.46322703        3.79981990
 C            2.63326685        0.90147883        3.03477237
 C            0.64212446        1.20139183        4.23571506
 C            1.47653550        1.76593501        3.20088816
 C           -0.63433339       -0.73959160        4.04286258
 C           -0.65688392        0.69591298        3.84403927
 C           -1.10876810       -1.53252551        3.00655627
 C            0.97841444       -2.76926846        2.92236090
 C           -0.28067249       -2.49518442        2.40666050
 C            3.04242359       -1.81996817        2.43668344
 C            2.09215457       -2.82856084        2.00058043
 C            2.98144670        0.49046178        1.74069960
 C            3.40315378       -0.83193602        1.52333721
 C            2.54790608        1.27589685        0.65812346
 C            0.86237179        2.23212007        2.05342459
 C            1.63277681        2.30214430        0.90518341
 C           -1.22300462        1.17263813        2.66330707
 C           -0.52723928        2.12477309        1.91389361
 C           -2.14604359       -1.01127581        2.24598327
 C           -2.15944272        0.37242564        2.00945806
 C           -2.72815815       -1.86748348        1.32617695
 C           -0.53566110       -2.87185585        1.08713456
 C           -1.84673280       -2.78188226        0.62939529
 C            1.84837933       -2.92231589        0.63216661
 C            0.52135326       -2.87611960        0.16411903
 C            3.58985840       -1.26778503        0.21942162
 C            2.87091383       -2.46423499       -0.19119246
 C            2.79832740        0.86595370       -0.65804117
 C            3.48246519       -0.32247852       -0.86981966
 C            2.14329146        1.49324342       -1.72984212
 C            1.13210827        3.05115737       -0.14293390
 C            1.50440981        2.70786296       -1.49820045
 C           -1.10568377        2.61190416        0.73900897
 C           -0.29090705        3.33042479       -0.13757516
 C           -2.79788097        0.88463588        0.87687956
 C           -2.28991468        2.03564794        0.26297854
 C           -3.67191703       -1.33718243        0.37166306
 C           -3.72783731        0.09700701        0.20154651
 C           -2.08952187       -2.60571614       -0.78827733
 C           -3.35003322       -1.91391693       -0.92385684
 C            0.25735797       -2.60992517       -1.19285576
 C           -1.02377457       -2.24527210       -1.59753547
 C            2.65121370       -2.37711179       -1.61330247
 C            3.18194990       -1.09682507       -2.05303856
 C            1.29479002       -2.47675886       -2.10055018
 C            1.91424019        0.79902042       -2.93128947
 C            2.24383901       -0.54846987       -3.00202166
 C            1.15716701       -1.50386351       -3.16157437
 C            0.88781997        1.20822130       -3.77875209
 C            0.42189979        3.14346187       -2.36382904
 C           -0.69915093        3.53479690       -1.51312333
 C            0.19679125        2.46187163       -3.54909012
 C           -2.83052262        2.46982638       -0.95188821
 C           -2.00076711        3.22395489       -1.87879771
 C           -3.95788298        0.32297061       -1.20946989
 C           -3.44984006       -0.85452644       -1.89938634
 C           -3.66166307        1.56778486       -1.73638165
 C           -1.20094749       -1.33911715       -2.66210428
 C           -0.10182166       -0.99714643       -3.47196975
 C           -0.11031006        0.21830238       -4.14710221
 C           -2.44097320       -0.69071445       -2.84406835
 C           -1.15916679        2.31026581       -4.04908416
 C           -2.26946435        2.73894279       -3.21999322
 C           -3.18767108        1.62071448       -3.10728187
 C           -1.35951992        0.90329089       -4.36629533
 C           -2.52413150        0.44570339       -3.64675918
