   70
C70 / DATE: 7/ 1/2024 / Origin: Program Fullerene / C70 from database
 C            1.17081724        0.07845645        5.00633041
 C            2.42706827        0.11172686        4.28340962
 C            2.52572404       -1.13868401        3.55708559
 C            0.38931616       -1.03494236        4.47973628
 C            1.20697094       -1.73299912        3.51171055
 C           -0.89042266       -0.51721455        4.05202728
 C            0.32981112        1.25667629        4.99592916
 C           -0.98727488        0.84578192        4.53982469
 C            0.73593677        2.40577691        4.20231056
 C            2.69215563        1.18968111        3.33641177
 C            1.83754969        2.28012182        3.26041327
 C            3.16294698       -0.85307041        2.29372928
 C            3.17324190        0.58500325        2.10839192
 C            2.79445307       -1.59932379        1.19313545
 C            0.68093941       -2.03664165        2.25858542
 C            1.57600375       -2.28773699        1.21858320
 C           -1.34109086       -0.78992116        2.76300250
 C           -0.63241306       -1.66997253        1.93834919
 C           -2.23721174        0.09885187        2.17873340
 C           -1.47173583        1.86062714        3.62825047
 C           -0.42417241        2.85189754        3.45704011
 C           -2.13978465        1.46094067        2.48362125
 C            1.37448326        2.73132214        1.95511019
 C           -0.00343044        3.16428839        2.09583395
 C            2.76420210        1.07943893        0.86542397
 C            1.74627960        2.03766151        0.80415009
 C            3.19586272       -1.09957065       -0.02806537
 C            2.97746407        0.26550062       -0.24901673
 C            3.09792075       -1.97346980       -1.09215964
 C            1.07570899       -2.76788227        0.00722830
 C            1.97251512       -2.88651286       -1.05978260
 C           -1.09085437       -1.89239642        0.63521671
 C           -0.28720798       -2.60983813       -0.25768998
 C           -2.84000946       -0.24396448        0.96977765
 C           -2.24551214       -1.23657629        0.17466973
 C           -3.57719488        0.76230943        0.35383486
 C           -2.12552853        2.34498503        1.41853763
 C           -0.89263816        2.88503824        1.06306803
 C           -3.04132160        2.10586172        0.41829753
 C            0.92029463        2.09880404       -0.32652679
 C           -0.38622009        2.59055150       -0.20793471
 C            2.47767024        0.67646954       -1.48416719
 C            1.32727632        1.47496536       -1.50841686
 C            3.20388204       -1.43886353       -2.42876467
 C            2.85700556       -0.04664732       -2.61157552
 C            1.48274116       -3.02972518       -2.41984793
 C            2.33848752       -2.22972843       -3.28269259
 C           -0.78855515       -2.95071744       -1.50831253
 C            0.11411229       -3.05964584       -2.64302203
 C           -2.71105705       -1.46745508       -1.13334013
 C           -2.01073539       -2.32911590       -1.97477738
 C           -4.06107339        0.57347169       -0.99187205
 C           -3.64270491       -0.60455851       -1.71125272
 C           -2.65912538        2.42876092       -0.93449639
 C           -1.29906309        2.40174219       -1.25136719
 C           -3.61752197        1.72780465       -1.76294441
 C            0.46408475        1.45487032       -2.61224306
 C           -0.87137513        1.83133929       -2.45645912
 C            2.06707119        0.03981659       -3.81813251
 C            1.73420936       -1.31905753       -4.23299587
 C            0.83730397        0.79743330       -3.78481618
 C           -0.46439070       -2.30889954       -3.75008247
 C           -1.82713297       -1.97310621       -3.37915910
 C            0.29975837       -1.36881595       -4.43886010
 C           -0.15387511        0.00969918       -4.49498123
 C           -3.44959107       -0.18156293       -3.08641893
 C           -3.19009761        1.24885597       -3.05147079
 C           -1.80350422        1.42286531       -3.41845502
 C           -2.37889287       -0.78978359       -3.85192549
 C           -1.48854925        0.28900278       -4.26373478
