   70
C70 / DATE: 7/ 1/2024 / Origin: Program Fullerene / C70 from database
 C            1.50849591       -0.38045323        5.44830982
 C            0.62818631       -1.50084341        5.19265787
 C            1.20579396       -2.27455288        4.10701500
 C            2.61900927       -0.47273498        4.51416555
 C            2.32413596       -1.53376069        3.56703695
 C            2.83855926        0.85676170        4.00327211
 C            0.77888425        0.83346753        5.12091663
 C            1.69040705        1.67424352        4.38750865
 C           -0.63253045       -0.96778743        4.70468127
 C           -0.46961084        0.45221553        4.48281042
 C            0.12770553       -2.59188538        3.20384478
 C           -1.01460081       -1.77464379        3.57250554
 C            0.40012657       -2.67800758        1.84652697
 C            2.33705262       -1.26904798        2.19234478
 C            1.54793936       -2.05977778        1.33941821
 C            3.00991709        1.02496199        2.57480310
 C            2.86457440       -0.06076151        1.71287371
 C            1.21314895        2.31074465        3.17897803
 C            2.30655178        2.23800589        2.23637917
 C           -0.79764141        0.96787789        3.22246788
 C           -0.07141437        2.04511293        2.69534253
 C           -1.69552621       -1.17221769        2.52482495
 C           -1.62589490        0.21752634        2.37412746
 C           -0.70318585       -2.71387682        1.01638681
 C           -1.79873697       -1.92184439        1.36566334
 C           -0.49013429       -2.97170224       -0.32307158
 C            1.63661878       -1.86493289       -0.04830361
 C            0.67950263       -2.45750862       -0.89419416
 C            2.73515990        0.22799302        0.35511945
 C            2.40472680       -0.80001974       -0.51942825
 C            1.98460649        2.43561562        0.91157295
 C            2.50165536        1.55488714       -0.03338408
 C           -0.33937815        2.46922100        1.39074786
 C            0.73476397        2.96652141        0.65103291
 C           -2.03050522        0.76461097        1.15028609
 C           -1.44421545        1.95477856        0.70551129
 C           -2.60571884       -1.43422678        0.34956193
 C           -2.72103300       -0.04694636        0.23939022
 C           -1.62900287       -3.10908777       -1.09817638
 C           -2.74062402       -2.23712075       -0.77946574
 C           -1.50096967       -3.17831492       -2.53079141
 C            0.75465362       -2.25748808       -2.28274844
 C           -0.26244267       -2.72400950       -3.11828992
 C            2.46378261       -0.54343421       -1.88057657
 C            1.66721576       -1.33912830       -2.79262725
 C            2.24687584        1.84475609       -1.37678904
 C            2.41079067        0.83775724       -2.32725223
 C            0.51515302        3.40961254       -0.63718006
 C            1.43500911        2.94638047       -1.66166895
 C           -1.71997570        2.43033935       -0.58424813
 C           -0.81644723        3.30145286       -1.18853386
 C           -3.21425090        0.51911824       -0.93187178
 C           -2.68387548        1.79564624       -1.36622520
 C           -3.23264870       -1.67778876       -2.02205305
 C           -2.58456783       -2.39767786       -3.10680333
 C           -3.42182611       -0.30655190       -2.11273465
 C           -0.61702605       -1.96008024       -4.30307400
 C           -2.03892039       -1.65659808       -4.22593150
 C            1.28952886       -0.48754455       -3.91351529
 C            1.67449747        0.87451965       -3.58534566
 C            0.08926588       -0.72238347       -4.57250160
 C            0.73648935        3.03618400       -2.92924553
 C           -0.66503952        3.30144812       -2.63416058
 C            0.79740098        1.91999557       -3.84866238
 C           -2.54088528        1.75215350       -2.81877094
 C           -2.93404269        0.42938368       -3.27215051
 C           -2.18342121       -0.21347947       -4.25492849
 C           -0.90245095        0.34109971       -4.66209934
 C           -1.46704385        2.39138560       -3.42407996
 C           -0.56259748        1.63244144       -4.27720076
