   70
C70 / DATE: 7/ 1/2024 / Origin: Program Fullerene / C70 from database
 C            1.36318418       -0.16183380        4.57760438
 C            2.67447387       -0.30052026        3.97138603
 C            2.69415912       -1.55474242        3.23820552
 C            0.55676290       -1.30403088        4.17180624
 C            1.35887960       -2.12575743        3.29024236
 C           -0.71355562       -0.80426496        3.68135351
 C            0.58674131        1.03657045        4.31819223
 C           -0.76602346        0.61275705        3.99188761
 C            1.16290465        2.09648952        3.62280757
 C            3.15825427        0.73881078        3.08003519
 C            2.45727945        1.93613080        2.97037029
 C            3.28546535       -1.30710275        1.93044360
 C            3.67443936        0.09122970        1.88327832
 C            2.69013174       -1.89484802        0.81495400
 C            0.80301834       -2.57547563        2.10070928
 C            1.66501765       -2.81085331        1.03780945
 C           -1.18747016       -1.25316238        2.44828924
 C           -0.54297178       -2.31765790        1.81590639
 C           -2.06374493       -0.45169954        1.71348216
 C           -1.56976221        1.42921567        3.21342090
 C           -2.38183590        0.81852661        2.17449224
 C            0.33278186        2.92588388        2.76514886
 C           -1.02764790        2.66592975        2.66870855
 C            2.40286551        2.62700445        1.69137405
 C            1.08223116        3.21678473        1.55225620
 C            3.63553500        0.75754491        0.66753714
 C            3.01894288        2.07280677        0.57961422
 C            2.77528780       -1.27029384       -0.43655674
 C            3.27844989        0.02058396       -0.53373380
 C            2.03297487       -1.78652941       -1.50212679
 C            1.16698362       -3.51814748       -0.03916941
 C            1.54967954       -3.08170602       -1.36377767
 C           -1.06546926       -2.81886654        0.62207756
 C           -0.26499789       -3.71328500       -0.08881038
 C           -2.36371394       -0.79445401        0.39564396
 C           -2.03861583       -2.07241610       -0.05609426
 C           -2.89764686        0.16151393       -0.48984412
 C           -2.68109270        1.85326229        1.21263620
 C           -1.69912118        2.90879669        1.40576859
 C           -2.99927087        1.50500121       -0.09242268
 C            0.42646609        3.18989072        0.32073195
 C           -0.96636306        3.33453392        0.30070055
 C            2.36691532        2.16801098       -0.71304100
 C            2.63831278        0.94512683       -1.44429693
 C            1.10054202        2.73399862       -0.82405837
 C            1.42505173       -0.90456216       -2.41519734
 C            1.66027070        0.47276322       -2.30797971
 C            0.47533736       -1.36961973       -3.34526322
 C            0.53963853       -3.57640668       -2.27198115
 C           -0.58070222       -4.04185330       -1.46180049
 C            0.00801495       -2.68156461       -3.27138947
 C           -2.52251164       -2.49922545       -1.28831733
 C           -1.79185790       -3.50432397       -2.03553141
 C           -1.42474149       -2.90803842       -3.30454994
 C           -3.15547587       -0.18717118       -1.82810240
 C           -2.97396618       -1.50665239       -2.24417984
 C           -2.28025100       -1.76111598       -3.50604284
 C           -3.17490656        0.80455082       -2.81175924
 C           -2.81039864        2.50077308       -1.04150723
 C           -1.62744173        3.33583333       -0.92118060
 C           -2.97947218        2.18664490       -2.43908145
 C            0.38018549        2.49547906       -1.99343530
 C            0.69949870        1.36784338       -2.76719160
 C           -0.85821449        3.11088695       -2.12306369
 C           -1.79330501        2.66497149       -3.13651967
 C           -0.30096221       -0.44677623       -4.05440183
 C           -1.73850924       -0.67897412       -4.17852227
 C           -2.39932435        0.59672621       -4.01863026
 C           -0.10647944        0.97363478       -3.82690666
 C           -1.37885390        1.62742043       -4.05240729
