   70
C70 / DATE: 7/ 1/2024 / Origin: Program Fullerene / C70 from database
 C            1.66539387        0.20343774        4.75300658
 C            0.83543500       -0.98184244        4.63636575
 C            1.45890336       -1.86513824        3.67132398
 C            2.66838846        0.14920727        3.70170904
 C            2.56640947       -1.13910132        3.06286111
 C            2.51742518        1.32703427        2.87809600
 C            0.82507377        1.35410117        4.48772613
 C            1.50852748        2.16892477        3.50540075
 C           -0.52883060       -0.55759181        4.39590261
 C           -0.50989295        0.87844493        4.16511229
 C           -1.32371624       -1.35063678        3.58830489
 C            0.65147476       -2.64890462        2.84728464
 C           -0.73658088       -2.50771694        2.92011713
 C            1.22086060       -3.14463969        1.67817796
 C            2.72778393       -1.23116470        1.68717010
 C            2.36049161       -2.43838901        1.11812981
 C            2.51497638        1.19230941        1.48712412
 C            2.69321284       -0.06931460        0.89485500
 C            2.01180369        2.24547103        0.72182575
 C            0.72796350        2.95464702        2.67957865
 C            1.19743480        3.19727432        1.33502620
 C           -1.15493144        1.41943805        3.04886169
 C           -0.68858673        2.63231975        2.55106130
 C           -2.20428113       -0.70820006        2.63247498
 C           -1.95014309        0.60121033        2.23691618
 C           -1.55938182       -2.78194351        1.75058360
 C           -2.52648002       -1.69943035        1.62787048
 C            0.37831043       -3.56965969        0.57016924
 C           -0.98680021       -3.31031328        0.59580856
 C            2.29995641       -2.55582664       -0.31549296
 C            1.13151275       -3.35091318       -0.65617693
 C            2.63190395       -0.18420901       -0.50439107
 C            2.60010485       -1.45700872       -1.09990466
 C            1.99333460        2.14565899       -0.66756382
 C            2.41220811        0.96477806       -1.28048552
 C            1.25114630        3.07777493       -1.39797743
 C            0.04919717        3.70033257        0.61397936
 C           -1.10684858        3.07689116        1.23471302
 C            0.11722662        3.72469957       -0.76479568
 C           -2.28098337        0.99252370        0.93111227
 C           -1.91965581        2.26059006        0.45782471
 C           -2.89573961       -1.28069963        0.35972512
 C           -2.92857729        0.08678508        0.07769225
 C           -1.66923937       -3.16201303       -0.60831647
 C           -2.74288727       -2.18675947       -0.68376472
 C            0.46256777       -3.07447798       -1.84639341
 C           -0.93011659       -3.09953080       -1.86226653
 C            2.31119264       -1.58208255       -2.45079929
 C            1.14434174       -2.36332105       -2.83389947
 C            2.38262466        0.88028386       -2.67283615
 C            2.37607674       -0.41944591       -3.30094087
 C            0.85878159        2.78403736       -2.76583874
 C            1.46127169        1.72064826       -3.41840598
 C           -1.05349545        3.32528641       -1.52187072
 C           -2.03618248        2.55082412       -0.90225246
 C           -0.58432067        2.96863861       -2.85211135
 C           -3.33396158        0.50254117       -1.18922026
 C           -2.89513609        1.79226075       -1.68509748
 C           -2.83631887       -1.72783453       -2.05557226
 C           -1.66293214       -2.22170627       -2.76598849
 C           -3.28785303       -0.44098248       -2.29718736
 C            0.40129969       -1.58626659       -3.81243753
 C            1.24399462       -0.47199279       -4.21279976
 C            0.66675989        0.85651705       -4.27943303
 C           -0.96343707       -1.38378552       -3.63341428
 C           -1.35004342        2.11043574       -3.62936340
 C           -2.62787079        1.65792879       -3.10822677
 C           -2.78644866        0.25893022       -3.46243171
 C           -0.71710248        0.98319970       -4.29722854
 C           -1.54659520       -0.19254298       -4.06900613
