   70
C70 / DATE: 7/ 1/2024 / Origin: Program Fullerene / C70 from database
 C            1.24748916       -0.06969119        4.32535577
 C            2.54384370       -0.42445498        3.79425923
 C            2.46945916       -1.79805539        3.31949824
 C            0.41146764       -1.25660510        4.25299103
 C            1.07994179       -2.21461628        3.40415988
 C           -0.90797851       -0.82616058        3.87224747
 C            0.51173368        1.01557871        3.69815673
 C           -0.88013999        0.61704407        3.69525410
 C            1.03620011        1.64142118        2.57000168
 C            3.08339620        0.37558072        2.71774727
 C            2.40222895        1.51003568        2.28150993
 C            3.14288033       -1.86385273        2.03310168
 C            3.61524377       -0.52778000        1.71277981
 C            2.57834658       -2.63036980        1.03029291
 C            0.43941481       -2.67095551        2.25184888
 C            1.22927970       -3.14899924        1.21052286
 C           -1.62048719       -1.56801193        2.94382081
 C           -0.90998495       -2.35296380        2.01325619
 C           -2.83566345       -1.01362451        2.57402423
 C           -1.74580862        1.16382130        2.75508312
 C           -2.90234881        0.43496659        2.47247530
 C            0.15518224        2.13168144        1.59535784
 C           -1.23112069        2.02519847        1.78053340
 C            0.66026074        2.78193011        0.46428721
 C            2.90806220        2.12399965        1.14451456
 C            2.03223539        2.94220757        0.33465762
 C            3.63406295       -0.07836899        0.39359049
 C            3.68198877        1.30163882        0.22779146
 C            2.69262116       -2.18097652       -0.34470374
 C            3.06137442       -0.86813787       -0.61833512
 C            0.65571419       -3.32013705       -0.10468208
 C            1.59049867       -2.76926689       -1.07702482
 C           -1.49811247       -2.69526402        0.77846346
 C           -0.70298125       -3.11682268       -0.29341708
 C           -3.56540021       -1.57931957        1.46872565
 C           -2.84607920       -2.42309342        0.54440303
 C           -3.71145822        0.76530780        1.31348002
 C           -4.14991363       -0.48242415        0.71193214
 C           -2.09112012        2.52740009        0.80598965
 C           -3.31007871        1.80177783        0.48693337
 C           -0.17067845        3.03004019       -0.63245998
 C           -1.54690959        3.03216896       -0.44346495
 C            0.34783565        3.02382666       -1.93572421
 C            2.60936417        2.97924217       -0.99229206
 C            3.53895205        1.86340543       -1.09366848
 C            1.72069566        2.89962893       -2.13141611
 C            2.64639133       -0.28839447       -1.82607261
 C            3.06053216        1.00183686       -2.14956104
 C            2.21342189        1.82770362       -2.98480771
 C            1.08336593       -2.11491447       -2.19234303
 C            1.65601053       -0.90684359       -2.60454980
 C           -1.14907133       -2.93507880       -1.60113601
 C           -0.21114353       -2.43573510       -2.59474228
 C           -3.27380520       -2.04309992       -0.79017365
 C           -3.87274914       -0.72336365       -0.69315882
 C           -2.43831640       -2.31572105       -1.85695167
 C           -3.32958900        1.60674219       -0.95311343
 C           -2.41740585        2.58283006       -1.51805796
 C           -3.37338120        0.31389286       -1.47879852
 C           -0.48583902        2.70641765       -3.00620522
 C           -1.86951808        2.34008878       -2.76451017
 C            1.32225320        1.20459946       -3.84133336
 C            1.10459667       -0.22626412       -3.69434005
 C            0.02364650        1.82331858       -4.04085838
 C           -0.93962146       -1.54911173       -3.48395986
 C           -2.23815655       -1.29845608       -2.87509097
 C           -2.65367395        0.01349897       -2.63882806
 C           -2.09493269        1.04694606       -3.38856734
 C           -0.26567363       -0.50466270       -4.09421596
 C           -0.95085093        0.76582043       -4.24048247
