   70
C70 / DATE: 7/ 1/2024 / Origin: Program Fullerene / C70 from database
 C            1.06245639       -0.00258098        4.72488634
 C            2.29716084       -0.31731925        4.04433707
 C            2.24226025       -1.72424215        3.69039288
 C            0.23410323       -1.20240236        4.70593007
 C            0.85129179       -2.12080204        3.77482330
 C           -1.12491963       -0.78480742        4.45793213
 C            0.24538002        1.07817987        4.21467249
 C           -1.12066945        0.66854430        4.43057178
 C            0.55889956        1.68303966        2.99606238
 C            2.62573333        0.40578938        2.83389732
 C            1.73890442        1.34206790        2.31180159
 C            2.91034182       -1.87948486        2.41564735
 C            3.23568737       -0.54599754        1.92578298
 C            2.37160679       -2.78424885        1.51459006
 C            0.19067848       -2.47856208        2.59572394
 C            0.94562521       -3.08390923        1.59845874
 C           -1.77161775       -1.22373784        3.23557011
 C           -1.02415153       -1.86535345        2.25376627
 C           -2.09498600        1.07077555        3.44639104
 C           -2.63752426       -0.13837723        2.84380025
 C           -0.44166865        2.40153456        2.32498408
 C           -1.79462911        2.12512081        2.59069071
 C           -0.08688096        3.12569087        1.18694852
 C            1.89362712        1.71667873        0.97869623
 C            1.13002581        2.76533703        0.48528283
 C            3.16399280       -0.31040987        0.55458333
 C            2.56221859        0.86742799        0.08858653
 C            2.68464050       -2.60964378        0.11345043
 C            3.25019404       -1.40823347       -0.30291366
 C            0.42660299       -3.13986446        0.24515589
 C            1.56838712       -3.14178796       -0.64652484
 C           -1.38068212       -1.69426681        0.90560054
 C           -0.68357753       -2.37929661       -0.09409920
 C           -3.05988809       -0.04344763        1.52696662
 C           -2.45505254       -0.85939256        0.55469651
 C           -2.74437347        2.36063348        1.60274160
 C           -3.50967849        1.21390701        1.14903622
 C           -1.08780343        3.46475493        0.18975040
 C           -2.41247340        3.15118265        0.43381774
 C            0.87422299        2.85072288       -0.94167740
 C           -0.51439384        3.22202015       -1.12905643
 C            2.44315514        1.07182567       -1.28968823
 C            1.43123714        1.90091830       -1.78203008
 C            3.29843096       -1.17647935       -1.66916261
 C            3.06754913        0.17235392       -2.14594391
 C            1.40451046       -2.68198677       -1.94322943
 C            2.49818881       -2.03703669       -2.51767723
 C           -0.87936992       -2.04251813       -1.43377275
 C            0.11932308       -2.34653642       -2.37886979
 C           -2.76007422       -0.66058695       -0.80291853
 C           -2.01918790       -1.31503571       -1.79336239
 C           -3.88548556        1.44142077       -0.21856842
 C           -3.24007074        2.67244485       -0.65689467
 C           -3.55989441        0.42119647       -1.18601670
 C           -1.25902903        2.58495900       -2.12232344
 C           -2.63028599        2.38917603       -1.94323374
 C           -3.22339442        1.14231758       -2.39467136
 C            0.77291204        1.57791672       -2.97213365
 C           -0.59970170        1.84073327       -3.10698210
 C            2.61195967        0.06340348       -3.52165295
 C            2.34048286       -1.34569194       -3.77930369
 C            1.43661685        0.80810114       -3.92603193
 C           -0.05462400       -2.01282442       -3.72054646
 C            1.05990948       -1.43022276       -4.44658412
 C            0.67327220       -0.07381308       -4.78657927
 C           -2.21343809       -0.92925362       -3.12086942
 C           -2.57715433        0.44745401       -3.39173141
 C           -1.38055775        1.03859221       -3.94358773
 C           -1.22749285       -1.27465863       -4.12335216
 C           -0.76685810       -0.02140825       -4.71403654
