   70
C70 / DATE: 7/ 1/2024 / Origin: Program Fullerene / C70 from database
 C            1.55201216        0.07222293        4.68518655
 C            0.75611450       -1.13243957        4.54450485
 C            1.37080072       -1.96227567        3.52155478
 C            2.66486890       -0.02758502        3.75931844
 C            2.64974898       -1.35924334        3.18321124
 C            2.60929217        1.11077936        2.85741423
 C            0.72627836        1.18862176        4.26329625
 C            1.39566912        1.84939238        3.15889090
 C           -0.62349377       -0.72787515        4.35680146
 C           -0.62212240        0.69462082        4.04825602
 C           -1.43691583       -1.55484531        3.60348603
 C            0.55745138       -2.48953096        2.51476805
 C           -0.81067557       -2.55658552        2.74913258
 C            1.04001118       -2.58148015        1.20286851
 C            3.12777452       -1.50638250        1.89439641
 C            2.38693954       -2.34351326        0.96992057
 C            2.96020780        0.91636330        1.52265417
 C            3.49980577       -0.31137786        1.15315512
 C            2.35924174        1.70308776        0.53712285
 C            0.62574018        2.30230009        2.09933741
 C            1.23182087        2.46796088        0.85816397
 C           -1.32207910        1.15036562        2.93061024
 C           -0.76103275        2.16897063        2.15922053
 C           -2.49077182       -0.95180973        2.81471289
 C           -2.35369794        0.36927900        2.39421166
 C           -1.71136766       -2.79780342        1.64228324
 C           -2.88259173       -1.95728827        1.85256933
 C            0.15150190       -2.65970513        0.11672802
 C           -1.20094881       -2.93784467        0.35569150
 C            0.61617619       -2.46268731       -1.20321093
 C            2.81600570       -1.96394917       -0.35489700
 C            3.50051438       -0.68268169       -0.24534289
 C            1.97003158       -2.15648064       -1.43579496
 C            2.70582058        1.51006708       -0.80428009
 C            3.23867146        0.28103208       -1.21142827
 C            2.22456064        2.40747558       -1.75522405
 C            0.53135321        3.13367883       -0.14565566
 C            1.10914332        3.26788634       -1.40281209
 C           -1.52120483        2.73569547        1.14898213
 C           -0.84518187        3.31002993       -0.00379648
 C           -3.01214690        0.78804818        1.23059584
 C           -2.68951480        2.02073191        0.66901276
 C           -3.61666253       -1.56156353        0.74992394
 C           -3.70132390       -0.14048714        0.44468453
 C           -2.10629275       -2.91732275       -0.69628692
 C           -3.38873438       -2.26186560       -0.49840060
 C           -0.29259467       -2.46312668       -2.27855281
 C           -1.65078629       -2.57657342       -2.02220355
 C            0.04583076       -1.82546703       -3.46880354
 C            2.33508315       -1.50004712       -2.60713667
 C            2.96212803       -0.19355794       -2.48989412
 C            1.41613874       -1.45672266       -3.71533565
 C            2.03961556        1.97901158       -3.13303025
 C            2.37307513        0.68114796       -3.48634015
 C            1.43078162       -0.10918608       -4.26349931
 C            0.24541248        3.38317208       -2.56552286
 C            0.78766047        2.54066469       -3.61392104
 C           -1.72012553        3.13714015       -1.15383877
 C           -2.73665270        2.17395840       -0.77734704
 C           -1.16288237        3.06663934       -2.41913694
 C           -3.68533685        0.00558073       -1.00533145
 C           -3.57723168       -1.31371085       -1.58109643
 C           -2.53501214       -1.54631340       -2.54998658
 C           -2.95995990        1.05050816       -1.56697505
 C           -0.80301528       -0.73804284       -3.92866942
 C            0.05236045        0.33930443       -4.38973869
 C           -0.26880144        1.64637012       -4.06004744
 C           -1.44600017        1.90309397       -3.24558146
 C           -1.95761943       -0.46354900       -3.20225977
 C           -2.17286545        0.83571882       -2.71128807
