   70
C70 / DATE: 7/ 1/2024 / Origin: Program Fullerene / C70 from database
 C            1.33061940       -0.04830371        4.47528471
 C            2.64510774       -0.31562995        3.92330126
 C            2.64791175       -1.67848815        3.42134331
 C            0.51792044       -1.24013866        4.29193700
 C            1.30156455       -2.21083718        3.55691552
 C           -0.75876820       -0.83206427        3.74207797
 C            0.57518254        1.08669834        3.97410842
 C           -0.74068690        0.61080804        3.58544206
 C            1.20682904        2.03470791        3.18237205
 C            3.15216843        0.54682196        2.87163470
 C            2.53253751        1.76646628        2.63342529
 C            3.26507418       -1.67288595        2.10611018
 C            3.51153438       -0.28823069        1.73585198
 C            2.77623269       -2.54561399        1.14871737
 C            0.72161249       -2.84825555        2.46485843
 C            1.54804085       -3.27285847        1.42511272
 C           -1.33273445       -1.59007944        2.72864757
 C           -0.65058214       -2.71007882        2.23238123
 C           -2.32988705       -0.99482549        1.95497197
 C           -1.38077268        1.15719544        2.47556545
 C           -2.36609746        0.39896815        1.84420660
 C            0.43741992        2.71944428        2.15802615
 C           -0.82036343        2.25040061        1.80104700
 C            2.56124460        2.31145262        1.28914350
 C            1.35467298        3.10116098        1.10574920
 C            3.21835150        0.15555118        0.44423149
 C            3.00917452        1.52297695        0.23235999
 C            2.71236270       -2.11318649       -0.23465575
 C            2.87464227       -0.76821349       -0.55430926
 C            0.96551579       -3.63653464        0.14500825
 C            1.64073147       -2.85179617       -0.87667363
 C           -1.22528512       -3.45309282        1.20293511
 C           -0.40484053       -3.81597309        0.05984460
 C           -3.06833323       -1.78390592        1.08000047
 C           -2.53166621       -3.07223500        0.69626721
 C           -3.64780911       -1.18763324       -0.10932656
 C           -3.13873807        1.00223273        0.85837470
 C           -3.75617238        0.19104295       -0.17907771
 C           -1.35401623        2.64574271        0.57288840
 C           -2.63275675        2.21150442        0.23564028
 C            0.86671604        3.26251814       -0.18502139
 C           -0.51222849        3.18576574       -0.41116404
 C            2.76249497        1.98217106       -1.05545407
 C            1.74121240        3.00062307       -1.23660395
 C            2.38903756       -0.31367979       -1.78191919
 C            2.58990808        1.01827698       -2.12104782
 C            0.89969080       -2.20957072       -1.86217048
 C            1.44272615       -1.08079551       -2.47486538
 C           -1.09695180       -3.35878896       -1.13086898
 C           -2.47230932       -3.10592607       -0.75737125
 C           -3.11133607       -1.90113369       -1.25588010
 C           -0.47007718       -2.46222301       -1.98920009
 C           -2.49398403       -1.17241053       -2.27073578
 C           -1.25199756       -1.60120969       -2.76022260
 C           -3.50907232        0.85163769       -1.44903732
 C           -3.05561939        2.20070268       -1.15211305
 C           -2.91195159        0.14386407       -2.49154972
 C           -0.99471629        3.39572142       -1.70512561
 C           -2.29428610        2.87150696       -2.09425357
 C            1.22710630        2.87540150       -2.58750973
 C            1.77020863        1.64091503       -3.14599648
 C           -0.09227545        3.23109291       -2.83427250
 C            0.78603289       -0.55488743       -3.58494418
 C           -0.62001432       -0.87029964       -3.75895158
 C            0.98185400        0.83569669       -3.95510117
 C           -2.39845425        0.85651175       -3.57027409
 C           -2.15881232        2.28235410       -3.41536744
 C           -0.82033378        2.56858549       -3.90101978
 C           -1.27909641        0.30033125       -4.30123474
 C           -0.28041295        1.34493415       -4.46246309
