   70
C70 / DATE: 7/ 1/2024 / Origin: Program Fullerene / C70 from database
 C            1.28098900        0.04660435        4.47117952
 C            2.52036674       -0.16664666        3.76253150
 C            2.54694559       -1.55555334        3.33920742
 C            0.46888355       -1.15603389        4.33178233
 C            1.20933577       -2.09561453        3.51563741
 C           -0.85004697       -0.74302967        3.89234886
 C            0.45073876        1.16581082        4.08357576
 C           -0.92174250        0.69032655        4.09378963
 C            0.85689744        2.02661249        3.06175996
 C            2.80490430        0.65087214        2.59881861
 C            1.93192461        1.67819371        2.22737199
 C            3.14113805       -1.60347907        2.01494733
 C            3.32076972       -0.23158492        1.56765349
 C            2.65634419       -2.53857021        1.11399261
 C            0.58609420       -2.69121701        2.42288841
 C            1.39759730       -3.20122816        1.41100309
 C           -1.37225754       -1.28762383        2.72336217
 C           -0.75771682       -2.40651940        2.14803081
 C           -2.34611288       -0.57847842        2.00806710
 C           -1.86959028        1.41421717        3.39036556
 C           -2.63671318        0.74209191        2.35202028
 C           -0.07024112        2.96354504        2.62119897
 C           -1.48094665        2.71167482        2.86798950
 C            0.04427763        3.51588271        1.28838567
 C            1.97885691        2.14578013        0.90474178
 C            1.14208113        3.19834949        0.50265633
 C            3.06897993        0.10177788        0.24410392
 C            2.71166331        1.41317066       -0.04399427
 C            2.63814986       -2.21086330       -0.29959073
 C            2.81950356       -0.89479831       -0.70652716
 C            0.81030048       -3.60871053        0.14868412
 C            1.58136683       -2.98909188       -0.91865300
 C           -1.38030730       -3.03645128        1.07410353
 C           -0.56785639       -3.65751384        0.03878202
 C           -2.75495315       -1.04305030        0.75655989
 C           -2.48555851       -2.36330480        0.41761642
 C           -3.06851307       -0.11557544       -0.24374357
 C           -2.86940729        1.69426295        1.28114000
 C           -2.19881859        2.92446584        1.62403321
 C           -1.27185230        3.47783865        0.66728079
 C           -2.79983559        1.22980192       -0.02419864
 C           -1.35171223        3.08504772       -0.66477486
 C           -2.11584207        1.95977481       -1.01067456
 C            1.03852702        3.51581976       -0.84771940
 C           -0.27614043        3.43409437       -1.46769531
 C            2.75240077        1.81338332       -1.37163596
 C            2.00193772        2.97688799       -1.77629260
 C            2.38277052       -0.52355821       -1.97957007
 C            2.58543423        0.79393418       -2.39162819
 C            0.92006736       -2.45822882       -2.02257699
 C            1.45965348       -1.33194032       -2.65578578
 C           -1.17881639       -3.35561712       -1.24183110
 C           -2.47942188       -2.76385605       -0.97719088
 C           -0.40134002       -2.84556040       -2.28007422
 C           -3.29523036       -0.53269902       -1.54793820
 C           -3.02387059       -1.91079604       -1.92428368
 C           -2.03564603        1.42889318       -2.30757148
 C           -2.83756613        0.32788556       -2.62408018
 C           -0.12280147        2.82269515       -2.77048050
 C            1.30196262        2.65296508       -3.00639171
 C            1.77706409        1.35909881       -3.46190972
 C           -0.98472159        1.80464667       -3.16059794
 C            0.90434495       -0.88425740       -3.85036784
 C            0.88074552        0.53841438       -4.12548657
 C           -0.52037281        0.92131107       -4.13740306
 C           -1.06100182       -2.34982721       -3.40095876
 C           -2.43191088       -1.89167731       -3.25026789
 C           -2.49719474       -0.52772965       -3.74461870
 C           -0.38339200       -1.40626837       -4.26566471
 C           -1.27356560       -0.26917657       -4.46543175
