   70
C70 / DATE: 7/ 1/2024 / Origin: Program Fullerene / C70 from database
 C            1.10247552        0.11325251        4.81872662
 C            2.42377139       -0.00562485        4.24091870
 C            2.54362569       -1.34433107        3.69179522
 C            0.33853257       -1.06389111        4.42885487
 C            1.21763865       -1.94092446        3.68184437
 C           -0.88090871       -0.61180214        3.79402286
 C            0.31055512        1.28051596        4.49362541
 C           -0.98029719        0.81723081        4.01095193
 C            0.81417535        2.23779722        3.52174005
 C            2.83303766        0.92904761        3.20648941
 C            2.05505139        2.04875971        2.90447434
 C            3.26842330       -1.25127870        2.43376940
 C            3.40880515        0.15940526        2.11290508
 C            2.92755114       -2.13094052        1.42074263
 C            0.76473675       -2.51406932        2.49650041
 C            1.72368560       -2.92656814        1.58218941
 C           -1.20600063       -1.11036982        2.53952830
 C           -0.52204298       -2.21705219        2.02774289
 C           -1.96889049       -0.32584984        1.67643475
 C           -1.35899731        1.65781838        2.88864259
 C           -0.32433917        2.65782439        2.71732650
 C           -1.88651286        1.06616128        1.74799719
 C           -0.09889110        3.15521118        1.44049806
 C            2.29146587        2.69208981        1.69359687
 C            1.21203751        3.43147730        1.06603902
 C            3.21472999        0.60878707        0.80681546
 C            2.97331387        1.96249138        0.63372397
 C            2.92287245       -1.65332623        0.04942792
 C            2.82694735       -0.29137506       -0.19407029
 C            1.30023349       -3.31865540        0.26152538
 C            2.08450675       -2.56147427       -0.70101395
 C           -0.95726006       -2.75852088        0.81129185
 C           -0.05077998       -3.46429522        0.00420275
 C           -2.46692982       -0.90784270        0.51986749
 C           -2.11617346       -2.22761883        0.23191364
 C           -2.94799576       -0.08110068       -0.49412334
 C           -1.89828850        1.80330702        0.56422413
 C           -1.04315293        2.90531831        0.44116122
 C           -2.50291432        1.24417242       -0.56562284
 C           -0.84765249        3.48457238       -0.80723764
 C            1.53848223        3.52885929       -0.34411158
 C            2.46127938        2.44020263       -0.63312977
 C            0.51302164        3.76687117       -1.24179136
 C            2.13804510        0.15983261       -1.33054459
 C            2.14009052        1.52594206       -1.63335950
 C            1.43885854       -2.11909896       -1.85000389
 C            1.41341418       -0.74556223       -2.13278080
 C           -0.37314778       -3.66825790       -1.32943683
 C            0.39929339       -2.92336785       -2.31461856
 C           -2.65535224       -2.84541383       -0.89259498
 C           -1.76189194       -3.61888017       -1.72293486
 C           -3.63512427       -0.64882991       -1.55971129
 C           -3.51024074       -2.07703306       -1.78192835
 C           -3.55588630       -0.01059764       -2.85324855
 C           -2.45106067        1.90914559       -1.79965265
 C           -1.58497382        2.98554542       -1.95131539
 C           -2.79752498        1.21869010       -2.95949564
 C            0.65695021        3.21825816       -2.57475562
 C            1.42448072        1.99438927       -2.72985985
 C           -0.67372893        2.96735545       -3.08211466
 C            0.57094477       -0.26742220       -3.14783612
 C           -1.76807690        1.00476839       -3.96846988
 C            0.62289651        1.07426108       -3.51291716
 C           -0.61134565        1.75888723       -3.87843365
 C           -0.52920159       -2.40495367       -3.29666913
 C           -1.80987131       -3.05578223       -3.05825233
 C           -3.02298255       -2.26971714       -3.14193202
 C           -2.94625526       -0.96531871       -3.76402675
 C           -0.49111062       -1.05164600       -3.61070525
 C           -1.64012647       -0.42945549       -4.10281165
