   70
C70 / DATE: 7/ 1/2024 / Origin: Program Fullerene / C70 from database
 C            1.23465006       -0.07692175        4.28642055
 C            2.54911723       -0.44915791        3.81469931
 C            2.47588791       -1.81739822        3.32179146
 C            0.40302049       -1.26470068        4.21376876
 C            1.08434863       -2.23131729        3.38445257
 C           -0.90666581       -0.83910641        3.80219294
 C            0.52597492        0.99274256        3.59969895
 C           -0.85798476        0.58750486        3.52079270
 C            1.11318839        1.60399292        2.49835218
 C            3.14780200        0.35403312        2.77365998
 C            2.49924419        1.50209496        2.32670005
 C            3.16876315       -1.87090760        2.04526771
 C            3.69218665       -0.54358296        1.77201013
 C            2.60142193       -2.59346755        1.01075697
 C            0.45839162       -2.69201006        2.22508897
 C            1.25677102       -3.12859340        1.17183703
 C           -1.61913486       -1.62742478        2.91642611
 C           -0.90330006       -2.42321693        1.99946807
 C           -2.82473416       -1.07861958        2.52007499
 C           -1.66144884        1.06023108        2.48813094
 C           -2.84169984        0.35631340        2.27839687
 C            0.30256928        2.03841002        1.43657956
 C           -1.06356633        1.71593452        1.40037798
 C            0.87616475        2.75962422        0.38667658
 C            3.07810946        2.13697543        1.24086406
 C            2.25428694        2.97794892        0.40269449
 C            3.76114712       -0.06453624        0.46622071
 C            3.87768377        1.31562184        0.34378326
 C            2.71139751       -2.08508211       -0.34500587
 C            3.12270368       -0.77646946       -0.56226335
 C            0.68796542       -3.25972029       -0.15049517
 C            1.58276101       -2.60060634       -1.09264090
 C           -1.48606812       -2.77213509        0.76339882
 C           -0.67977171       -3.12110263       -0.32679267
 C           -3.57490009       -1.72313292        1.47462068
 C           -2.85162493       -2.56926786        0.55625926
 C           -3.60986170        0.58893087        1.08175112
 C           -4.21917421       -0.67764039        0.70339405
 C           -1.79600861        1.93164651        0.22017295
 C           -3.09051486        1.39713294        0.08187383
 C            0.13498689        3.01690869       -0.77413906
 C           -1.21218714        2.64614749       -0.83876077
 C            0.78987082        3.32083204       -1.97471081
 C            2.98171928        3.10276839       -0.84359990
 C            3.80601740        1.91215315       -0.96891050
 C            2.22910445        3.22201951       -2.06377035
 C            2.67213219       -0.10850917       -1.70774670
 C            3.24082647        1.11825946       -2.03525978
 C            2.50756305        2.03893049       -2.87077703
 C            1.03011106       -1.84575116       -2.12337484
 C            1.51786291       -0.55585746       -2.37525282
 C           -1.12884956       -2.88546864       -1.62368328
 C           -0.24672467       -2.19453443       -2.55212737
 C           -3.34046678       -2.26352774       -0.77953426
 C           -4.17754946       -1.07215021       -0.69178588
 C           -2.48564315       -2.42874208       -1.86019624
 C           -3.65298147        1.25880419       -1.18209098
 C           -4.03679947       -0.06744089       -1.63912378
 C           -1.83353183        2.67189008       -2.09145009
 C           -3.06557261        1.94673983       -2.30048231
 C            0.31555133        2.69937419       -3.18965200
 C            1.24436558        1.61220608       -3.43097551
 C            0.79805544        0.30913754       -3.22075613
 C           -1.02954224        2.41891978       -3.27016767
 C           -1.04265722       -1.24176712       -3.29754558
 C           -2.43760421       -1.42455190       -2.91226537
 C           -3.28620776       -0.32666088       -2.85463079
 C           -2.81243673        0.95561087       -3.33995180
 C           -0.53878987        0.03378428       -3.51894703
 C           -1.41972092        1.09745587       -3.71978801
