   70
C70 / DATE: 7/ 1/2024 / Origin: Program Fullerene / C70 from database
 C            1.40582341        0.13235348        5.07882300
 C            0.62411106       -1.04890784        4.76131227
 C            1.47581237       -1.95625984        4.02771819
 C            2.63326084        0.06541080        4.30360157
 C            2.71330782       -1.25545797        3.72216073
 C            2.65707254        1.21321047        3.41681323
 C            0.66058706        1.29292376        4.62157483
 C            1.53429144        2.06852143        3.76721098
 C           -0.60748172       -0.61243548        4.13485788
 C           -0.60502023        0.83735703        4.07253778
 C           -1.10539018       -1.29743349        3.03659635
 C            0.97402463       -2.51256051        2.78541752
 C           -0.34273548       -2.29443082        2.40682010
 C            2.93024576       -1.36786667        2.29398494
 C            1.99376033       -2.34244341        1.77317721
 C            2.97580915        1.05064797        2.06820591
 C            3.17110626       -0.23450456        1.52995599
 C            2.71295082        2.11740712        1.20234917
 C            0.94891523        2.82092878        2.76102086
 C            1.65932678        2.97716073        1.50311592
 C           -1.10339719        1.45399248        2.92096139
 C           -0.45124557        2.58606973        2.43032858
 C           -2.07899864       -0.65240312        2.28503904
 C           -1.93690918        0.72018111        2.06468146
 C           -2.75917067       -1.41846761        1.35568194
 C           -0.69581960       -2.65515885        1.10893154
 C           -2.03313020       -2.52727198        0.77154372
 C            1.58649649       -2.21867561        0.44530275
 C            0.27489617       -2.56396462        0.09978944
 C            3.13913252       -0.38646620        0.14919639
 C            2.30379593       -1.37313980       -0.40321214
 C            3.11290736        2.01591580       -0.12430681
 C            3.50642267        0.71220566       -0.60881921
 C            2.26456671        2.59537751       -1.15336468
 C            0.66899258        3.26421394        0.47622654
 C           -0.63482143        2.97018429        1.04341970
 C            0.94268584        2.89453614       -0.84088722
 C           -2.30756715        1.26016610        0.82439638
 C           -1.54579502        2.28611191        0.26357228
 C           -3.48442225       -0.76442304        0.28710990
 C           -3.20723594        0.56974924        0.00487970
 C           -2.43236252       -2.63197952       -0.61121549
 C           -3.55818453       -1.73119818       -0.79628998
 C           -0.11547135       -2.47862919       -1.24470272
 C           -1.45732221       -2.70257924       -1.59537506
 C            1.95796906       -1.33632239       -1.75690511
 C            0.80001140       -1.98992382       -2.19040227
 C            3.29660063        0.69445886       -2.03633671
 C            2.57100943        1.90858757       -2.38622107
 C            2.56416995       -0.41150936       -2.60747757
 C            1.48325934        1.51463444       -3.25304212
 C            1.78120091        0.16252888       -3.68232439
 C           -0.09990110        2.40807407       -1.64967557
 C           -1.39028889        2.33710406       -1.11379997
 C            0.17083568        1.82063166       -2.89958110
 C           -3.44236780        1.04846809       -1.28513590
 C           -2.44705628        1.91006011       -1.89897136
 C           -3.85214830       -1.29087844       -2.07729474
 C           -3.93092703        0.13988848       -2.31146286
 C           -1.87532734       -2.57613415       -2.91654456
 C           -3.12523173       -1.88105920       -3.18942652
 C            0.41782670       -1.83279652       -3.52280179
 C            0.74292939       -0.58753847       -4.19316940
 C           -0.92997700       -2.17110372       -3.92864621
 C           -0.85374647        1.17121450       -3.59631378
 C           -2.17634996        1.40366659       -3.22752134
 C           -3.21464465        0.43387049       -3.54227487
 C           -2.84555456       -0.82733660       -4.15039017
 C           -0.52819364        0.07483544       -4.40368674
 C           -1.48191851       -1.00138853       -4.60073577
