   70
C70 / DATE: 7/ 1/2024 / Origin: Program Fullerene / C70 from database
 C            1.47924245        0.01875375        4.68409598
 C            0.69845636       -1.19220759        4.53158137
 C            1.21959969       -1.93194417        3.39436350
 C            2.56139228       -0.04183978        3.72541765
 C            2.43679618       -1.26973517        2.96239501
 C            2.54807694        1.19993410        2.98364289
 C            0.62718968        1.13636675        4.30678895
 C            1.24068608        1.80103990        3.18017481
 C           -0.68926537       -0.79408966        4.49442553
 C           -0.70984106        0.62440039        4.14776061
 C           -1.57023457       -1.62663752        3.82745394
 C            0.32011876       -2.40113140        2.43916283
 C           -1.03260845       -2.49581259        2.78260978
 C            0.68477235       -2.39317577        1.08855196
 C            2.72559893       -1.20089748        1.60632635
 C            1.95210965       -1.93034027        0.70130246
 C            3.02717552        1.16991678        1.68863413
 C            3.38604615       -0.06497419        1.14617763
 C            2.53876103        2.12975522        0.81817086
 C            0.47752079        2.10325153        2.04863160
 C            1.17006804        2.42744091        0.87903541
 C           -1.47556088        1.03608650        3.05834224
 C           -0.86000100        1.67516354        1.96277854
 C           -2.76459323       -1.01613318        3.28800871
 C           -2.67864933        0.37141100        2.86826103
 C           -2.03371896       -2.59347263        1.73046761
 C           -3.16551413       -1.79570108        2.13599877
 C           -0.27471916       -2.69373624        0.11955264
 C           -1.62510569       -2.52503342        0.40505419
 C            0.11200736       -2.86565847       -1.19602028
 C            2.30430909       -1.90503723       -0.65530638
 C            1.43323627       -2.43142346       -1.60407629
 C            3.87864283       -0.08233386       -0.15091578
 C            3.30310935       -1.03119697       -1.08948992
 C            3.24286425        2.31164177       -0.36180003
 C            4.02563316        1.18836488       -0.84294929
 C            2.57712396        2.90688594       -1.49604807
 C            0.45568659        2.67765010       -0.29316106
 C            1.13767340        3.06743498       -1.44125453
 C           -1.55263977        1.80686966        0.74246753
 C           -0.86198851        2.23334810       -0.40536896
 C           -3.35588689        0.47540951        1.60077999
 C           -3.70326316       -0.87157946        1.17121295
 C           -2.87724559        1.35364612        0.63696524
 C           -2.47943027       -1.97910939       -0.56914805
 C           -3.54596240       -1.14805641       -0.17543487
 C           -0.82495146       -2.52295947       -2.25080603
 C           -2.07977990       -2.00935645       -1.91709438
 C            1.30358997       -1.76573901       -2.89130488
 C           -0.06242232       -1.93481003       -3.34502102
 C            3.14458085       -0.35386904       -2.37036661
 C            3.69636407        0.98085667       -2.24015775
 C            2.89415845        2.10158926       -2.66811467
 C            1.97502209       -0.56282025       -3.10101560
 C            0.62695319        2.65828991       -2.73134216
 C            1.64860216        1.82742339       -3.34537793
 C            1.31003317        0.52136933       -3.70335408
 C           -1.46893593        2.18265511       -1.67090153
 C           -0.68497394        2.22936256       -2.83044286
 C           -3.45209744        1.22340314       -0.62331122
 C           -3.90232805       -0.10455718       -1.00987594
 C           -2.80015784        1.80096898       -1.77461915
 C           -2.77998711       -1.26893166       -2.87161903
 C           -3.70684253       -0.25350550       -2.42688011
 C           -3.23151906        1.02367759       -2.92623006
 C           -0.63608167       -0.94444343       -4.12064136
 C            0.02382461        0.34685346       -4.21123197
 C           -0.96705176        1.35488203       -3.87726108
 C           -2.06325624       -0.70243603       -4.00062844
 C           -2.27041205        0.73858257       -3.96802132
