   70
C70 / DATE: 7/ 1/2024 / Origin: Program Fullerene / C70 from database
 C            1.26310668       -0.08785517        4.26060799
 C            2.52828610       -0.41743401        3.64686190
 C            2.46511760       -1.80484266        3.21724990
 C            0.43121293       -1.28078300        4.22850665
 C            1.09879275       -2.26308937        3.40635612
 C           -0.90321899       -0.87346458        3.85529574
 C            0.48439690        1.00210365        3.70445104
 C           -0.89845341        0.56976695        3.66919385
 C            0.97294852        1.73841194        2.63258689
 C            2.97190139        0.36952325        2.51567785
 C            2.25681699        1.49494593        2.11660533
 C            3.05235635       -1.88795968        1.89044568
 C            3.42017839       -0.54160468        1.48408896
 C            2.46808145       -2.73208482        0.96117126
 C            0.41962230       -2.81432682        2.32317451
 C            1.17043630       -3.31611430        1.25941885
 C           -1.62820526       -1.64427348        2.95396648
 C           -0.95692292       -2.59036738        2.16089977
 C           -2.81863657       -1.08479382        2.49614262
 C           -1.76422831        1.10544929        2.71731969
 C           -2.90927923        0.36507843        2.43901401
 C            0.05706789        2.46336809        1.87133495
 C           -1.25572664        1.98721512        1.74760056
 C            0.54721574        3.36930798        0.93637734
 C            2.59287347        2.06073948        0.88787589
 C            1.92744363        3.22690735        0.52446270
 C            3.25726892       -0.13929186        0.16222161
 C            3.15185377        1.22745313       -0.09585109
 C            2.45403738       -2.34226333       -0.43692237
 C            2.79857556       -1.04554715       -0.80246218
 C            0.52999954       -3.61534602       -0.00729867
 C            1.29115908       -2.95272742       -1.05489173
 C           -1.61555099       -3.17882255        1.07952356
 C           -0.85077426       -3.61725303       -0.07584011
 C           -3.48444281       -1.62038806        1.32311349
 C           -2.86132481       -2.61375742        0.58950714
 C           -3.72900672        0.71648559        1.30374414
 C           -4.10634712       -0.51251481        0.62418008
 C           -1.95685438        2.21866983        0.55203173
 C           -3.18105401        1.61856702        0.31845997
 C           -0.22670318        3.61748609       -0.26345357
 C           -1.29325701        2.77718386       -0.53120086
 C            2.04213008        3.74520885       -0.82312988
 C            0.69229835        3.96312053       -1.32234449
 C            3.21810302        1.63890453       -1.42324965
 C            2.75695545        2.95971698       -1.80148899
 C            2.36226298       -0.56271431       -2.03789058
 C            2.78722430        0.70280256       -2.44437161
 C            0.62425678       -2.25521857       -2.05777118
 C            1.26790233       -1.17029073       -2.66735114
 C           -1.49854397       -3.09140700       -1.26334973
 C           -2.76127024       -2.49194978       -0.86032160
 C           -0.74761311       -2.46963426       -2.25529087
 C           -3.84221926       -0.33175854       -0.79138304
 C           -3.42239268        1.04936706       -0.99128251
 C           -3.21152901       -1.34153911       -1.51605384
 C           -1.47383778        2.22690082       -1.81185251
 C           -2.53956356        1.33413932       -2.03125015
 C            0.56969065        3.28097053       -2.59053253
 C            1.89455517        2.80924252       -2.95917364
 C            2.02925377        1.44532134       -3.44134319
 C           -0.51620082        2.44000225       -2.82197565
 C            0.69022356       -0.56364737       -3.77788722
 C            0.91635437        0.84876888       -4.00922303
 C           -0.37225565        1.49949842       -3.83814849
 C           -1.44025148       -1.69743332       -3.17831508
 C           -2.64265138       -1.00527083       -2.74221907
 C           -2.45792032        0.40066746       -3.05960222
 C           -0.71050067       -0.80284326       -4.05142099
 C           -1.38522388        0.48731744       -4.02332481
