   70
C70 / DATE: 7/ 1/2024 / Origin: Program Fullerene / C70 from database
 C            1.60117752        0.24300615        4.80268736
 C            0.78002064       -0.95266035        4.75455636
 C            1.43657931       -1.90234725        3.87901116
 C            2.62158959        0.12228894        3.77369259
 C            2.53318701       -1.20702717        3.21883512
 C            2.48257697        1.24553518        2.87428123
 C            0.75919188        1.36731352        4.44523853
 C            1.45618159        2.11960402        3.42260617
 C           -0.57889803       -0.55824382        4.44293511
 C           -0.56800436        0.86240788        4.13287250
 C           -1.33983462       -1.40782820        3.66046965
 C            0.66093050       -2.77035773        3.11492828
 C           -0.73240199       -2.61648541        3.11357580
 C            1.28128437       -3.36972542        2.02270134
 C            2.69178841       -1.38703383        1.84938099
 C            2.34149525       -2.63524799        1.35026618
 C            2.51129330        1.02453315        1.49624491
 C            2.66271283       -0.27558117        0.98953079
 C            2.04015658        2.03448547        0.65408019
 C            0.68613699        2.84173039        2.53035053
 C            1.16922927        2.98886786        1.17406193
 C           -1.20353075        1.33725277        2.98216317
 C           -0.73046878        2.51864760        2.41933320
 C           -2.18632896       -0.84222981        2.62633066
 C           -1.99518991        0.47678067        2.21065196
 C           -1.51818014       -2.98873085        1.94226747
 C           -2.39420486       -1.87332166        1.62581802
 C            0.48005618       -4.02628400        1.00799656
 C           -0.92602946       -3.69778046        0.90970008
 C            2.17801696       -2.81958154       -0.07506948
 C            1.09311582       -3.75937515       -0.28141009
 C            2.59990521       -0.47070000       -0.39456912
 C            2.24631577       -1.72004871       -0.91248014
 C            2.06705899        1.85009417       -0.72806768
 C            2.54021452        0.63885784       -1.23933457
 C            1.25729478        2.67001580       -1.52423425
 C            0.02347716        3.38022088        0.38308572
 C           -1.14895706        2.89553356        1.08414195
 C            0.08008294        3.17890576       -0.98269846
 C           -2.39055368        0.83992752        0.91254133
 C           -2.03432475        2.08966762        0.38424755
 C           -2.56945570       -1.47911034        0.30753466
 C           -2.90339404       -0.14956253        0.06357240
 C           -1.19644078       -3.31123742       -0.46563043
 C            0.04224669       -3.39179560       -1.21444191
 C           -2.04895072       -2.24923882       -0.73894810
 C            1.55638636       -1.77657653       -2.11971638
 C            0.30446455       -2.39233257       -2.14749779
 C            2.47796970        0.40924964       -2.61294807
 C            1.84395982       -0.81382772       -3.06994100
 C            1.37676821        2.61721188       -2.90816112
 C            2.04629756        1.47761580       -3.49507632
 C            0.20124289        2.90052799       -3.71964509
 C           -1.11307631        2.95828408       -1.66290125
 C           -2.16297492        2.31428314       -0.98864433
 C           -1.08546178        3.02480502       -3.05434990
 C           -3.31625082        0.19001494       -1.21849905
 C           -3.07457815        1.53465191       -1.68957942
 C           -1.99660770       -1.68189155       -2.00999812
 C           -0.77398572       -1.69454995       -2.70057026
 C           -2.93740474       -0.70302711       -2.29556220
 C            0.80663792       -0.43535661       -4.00882928
 C            1.14546843        0.89672809       -4.47802923
 C            0.08163518        1.84848038       -4.71868752
 C           -0.51829009       -0.75961211       -3.71302819
 C           -2.04401549        2.27087891       -3.83559952
 C           -3.02849089        1.47491813       -3.13811668
 C           -2.80497605        0.08351968       -3.50163712
 C           -1.28694709        1.37183356       -4.69082258
 C           -1.55593931        0.02002946       -4.22696679
