   70
C70 / DATE: 7/ 1/2024 / Origin: Program Fullerene / C70 from database
 C            1.24382930        0.00199821        4.37039774
 C            2.50011045       -0.24694515        3.70281399
 C            2.52159383       -1.64800580        3.32714440
 C            0.42336271       -1.19649621        4.24239854
 C            1.16555141       -2.15370778        3.45153163
 C           -0.88265437       -0.77576392        3.77849972
 C            0.43250513        1.11686376        3.92703388
 C           -0.94048823        0.66076366        3.97164489
 C            0.83605710        1.89448048        2.84139531
 C            2.81926606        0.52228974        2.51754107
 C            1.96196644        1.52809686        2.08523197
 C            3.17460112       -1.74801281        2.03482728
 C            3.36309359       -0.39411864        1.53064412
 C            2.72432355       -2.72040243        1.15535459
 C            0.56932631       -2.73075487        2.33371691
 C            1.40632381       -3.29743092        1.37319019
 C           -1.39362113       -1.31565669        2.60042807
 C           -0.74860861       -2.39825384        1.99075794
 C           -2.39020339       -0.61360814        1.91170409
 C           -1.88309201        1.37860988        3.25959383
 C           -2.75692982        0.65902841        2.35096351
 C           -0.09941344        2.76993632        2.28355967
 C           -1.45737287        2.57835271        2.55733100
 C            0.27542483        3.54826244        1.19272245
 C            2.07052577        1.95604845        0.76515063
 C            1.38979530        3.10367685        0.37822988
 C            3.14493610       -0.13845196        0.17644201
 C            2.55662360        1.07486478       -0.20805705
 C            2.85303479       -2.48198930       -0.26821501
 C            3.17615496       -1.20730816       -0.72412148
 C            0.87290225       -3.68881138        0.07975941
 C            1.79166771       -3.21512679       -0.94106606
 C           -1.33033116       -2.98564932        0.87164998
 C           -0.48744590       -3.59920545       -0.14143600
 C           -2.87309151       -1.08783424        0.68862722
 C           -2.41246780       -2.29914274        0.19110135
 C           -3.53279819       -0.22392014       -0.18184226
 C           -3.26249112        1.62846089        1.39598638
 C           -2.45377099        2.83277196        1.52611476
 C           -3.65252873        1.18861899        0.14075942
 C           -0.74548254        4.07535005        0.30253397
 C           -2.09591652        3.55531055        0.39577055
 C            1.02399729        3.27363230       -1.01594823
 C           -0.28713736        3.89148853       -1.06353478
 C            2.28614649        1.31786755       -1.55727973
 C            1.30686397        2.24689781       -1.90332001
 C            3.01032272       -0.95377060       -2.07909926
 C            2.70257946        0.39524735       -2.50779624
 C            1.31144636       -2.71589217       -2.15037803
 C            2.15424763       -1.84602381       -2.84290234
 C           -0.96436659       -3.16994919       -1.44219848
 C           -2.21407228       -2.45221999       -1.24407526
 C           -0.07023112       -2.72157244       -2.41112105
 C           -3.29366513       -0.33482505       -1.61184903
 C           -2.55062563       -1.40703999       -2.10487921
 C           -3.28493997        1.95009605       -1.04312436
 C           -2.48147043        3.07577459       -0.92340281
 C           -1.33736805        3.22135442       -1.80776542
 C           -3.02303073        1.00320244       -2.11359733
 C            0.36886109        1.92201749       -2.88600032
 C           -0.98739427        2.17116289       -2.65240757
 C           -1.93761639        1.19041463       -2.96130060
 C            1.96944420        0.29695028       -3.75915865
 C            1.67047406       -1.10859287       -3.98998102
 C            0.73238457        1.04223417       -3.89747464
 C           -0.59565028       -1.99699214       -3.47970359
 C           -1.81689090       -1.23201507       -3.27940925
 C           -1.57021550        0.11844640       -3.76599989
 C            0.27374778       -1.21573364       -4.33703095
 C           -0.27010878        0.13065172       -4.40707640
