   70
C70 / DATE: 7/ 1/2024 / Origin: Program Fullerene / C70 from database
 C            1.52143236       -0.07578811        4.67276901
 C            0.69760081       -1.26582834        4.59950890
 C            1.17198870       -2.08447655        3.49591722
 C            2.55900483       -0.20405743        3.67115141
 C            2.35434596       -1.44633484        2.94962954
 C            2.56534864        1.01907087        2.89639061
 C            0.68932629        1.05512145        4.29313288
 C            1.30572336        1.69443996        3.15081164
 C           -0.68066105       -0.82840608        4.57042314
 C           -0.66552996        0.57316838        4.16063514
 C           -1.60211108       -1.67079390        3.97002346
 C            0.23212036       -2.63030346        2.62822150
 C           -1.10436008       -2.67664475        3.03847986
 C            0.54515539       -2.76619832        1.27195733
 C            2.53962578       -1.41598539        1.57350327
 C            1.67043909       -2.12418100        0.73736537
 C            2.97041538        0.93693560        1.57623318
 C            3.22772893       -0.32830398        1.04344099
 C            2.50788323        1.91870483        0.71016531
 C            0.52316787        2.05124707        2.05227846
 C            1.18589002        2.35190928        0.85650538
 C           -1.42411724        0.96351674        3.05815171
 C           -0.82897599        1.68089314        2.00505102
 C           -2.75870902       -1.06159356        3.34781956
 C           -2.61909589        0.28739265        2.83155195
 C           -2.15472928       -2.93214373        2.06629311
 C           -3.17419022       -1.91729082        2.25047182
 C           -0.39665135       -3.32516892        0.41226654
 C           -1.80370188       -3.28389634        0.77358378
 C           -0.30790574       -3.06227005       -1.01408757
 C            1.80780500       -1.99095613       -0.65238209
 C            0.72733328       -2.26580225       -1.49035055
 C            3.63375928       -0.40383367       -0.28022024
 C            2.89743656       -1.29279824       -1.16311331
 C            3.13493306        2.01406462       -0.52091995
 C            3.84515547        0.84156716       -0.99392450
 C            2.41959047        2.57815100       -1.64463897
 C            0.44090025        2.71994242       -0.26929561
 C            1.09872634        2.98770743       -1.48194960
 C           -1.54453635        1.89686126        0.82403427
 C           -0.95578109        2.61881068       -0.21604556
 C           -3.21124963        0.30544437        1.51213510
 C           -3.51540259       -1.06077400        1.12918074
 C           -2.68400609        1.13725663        0.54427005
 C           -2.51012045       -2.67453297       -0.34282199
 C           -1.66004091       -2.85075771       -1.50640542
 C           -3.18914247       -1.46529108       -0.16329518
 C           -1.84741110       -2.01952235       -2.59545795
 C            0.56287216       -1.55565514       -2.68741727
 C           -0.68203136       -1.54381088       -3.31404832
 C            2.77845521       -0.64230674       -2.45768488
 C            3.47715400        0.62692445       -2.37776958
 C            2.78766571        1.81588679       -2.83281562
 C            1.56505642       -0.69094651       -3.13746235
 C            1.83812398        1.66635801       -3.82919695
 C            1.24629325        0.34708454       -4.02277066
 C            0.36810999        3.27557094       -2.63259289
 C            0.75841774        2.63197648       -3.87502761
 C           -1.71648636        2.82986977       -1.36369601
 C           -1.07502293        3.27014034       -2.58043471
 C           -2.98657949        0.85140711       -0.78028708
 C           -3.11241019       -0.48989317       -1.16291520
 C           -2.73594087       -0.88214115       -2.44642440
 C           -2.70364208        1.82979244       -1.72187815
 C           -1.09830604       -0.36243739       -4.04438001
 C           -0.12873656        0.54041307       -4.45744098
 C           -0.41114696        1.96532660       -4.41718979
 C           -1.56151135        2.43412117       -3.67033736
 C           -2.32963328        0.11540220       -3.42196126
 C           -2.47510830        1.45864551       -3.10471370
