   70
C70 / DATE: 7/ 1/2024 / Origin: Program Fullerene / C70 from database
 C            1.30052317       -0.03783560        4.18593416
 C            2.63245879       -0.34481323        3.72389894
 C            2.64402941       -1.72668278        3.27380655
 C            0.47435039       -1.21978712        3.98885976
 C            1.27925243       -2.22337397        3.32278549
 C           -0.76016718       -0.79623858        3.35959677
 C            0.60475498        1.08668168        3.59120434
 C           -0.74675721        0.65181009        3.29530358
 C            1.24917556        1.91544101        2.67108524
 C            3.19443951        0.46648812        2.66661235
 C            2.58056000        1.65635000        2.28799811
 C            3.36080369       -1.78451307        2.00960049
 C            3.67137737       -0.41878059        1.61619138
 C            2.92164259       -2.67646646        1.04465610
 C            0.76493055       -2.86630368        2.20134272
 C            1.66290212       -3.36935132        1.26071392
 C           -1.23664311       -1.49973953        2.26155804
 C           -0.56571426       -2.64779026        1.82832544
 C           -2.14571822       -0.87090556        1.40977830
 C           -1.41744251        1.27407097        2.25324586
 C           -2.27631908        0.52446631        1.44649625
 C            0.44741184        2.75549390        1.88721913
 C           -0.92095733        2.48053548        1.77041138
 C            1.04550502        3.64976421        1.00446871
 C            3.07401599        2.23833743        1.12660528
 C            2.38918176        3.37441766        0.55438184
 C            3.52196012       -0.01313431        0.28713394
 C            3.46696512        1.35699038        0.03707768
 C            2.92890503       -2.26170134       -0.34437070
 C            2.97447317       -0.90184330       -0.64758315
 C            1.18003835       -3.79554004       -0.04106682
 C            1.99635455       -3.12777477       -1.04633183
 C           -1.09035782       -3.36735437        0.75963495
 C           -0.18726127       -3.91842586       -0.23829868
 C           -2.78490094       -1.61861506        0.42122499
 C           -2.25939653       -2.85828501        0.06405444
 C           -3.67564293       -0.99663993       -0.44568407
 C           -3.07151110        1.18738871        0.50704351
 C           -3.79151112        0.44969655       -0.43280098
 C           -1.70652061        3.20367524        0.87854279
 C           -2.85408241        2.54611267        0.27126077
 C            0.31054079        4.09279767       -0.16299854
 C           -1.07128780        4.02847919       -0.13946769
 C            2.32901773        3.17056456       -0.88526608
 C            2.79163244        1.82931442       -1.15477896
 C            1.00066936        3.53752904       -1.31771544
 C            2.24424245       -0.41133191       -1.73908851
 C            1.96819798        0.94737238       -1.83702726
 C            1.40887245       -2.67188575       -2.21685616
 C            1.60141738       -1.28572063       -2.60432764
 C           -0.75119556       -3.64156565       -1.54907008
 C           -2.11826372       -3.19665745       -1.34512224
 C            0.03272823       -3.02790703       -2.52044294
 C           -3.71701591       -1.42879237       -1.83228961
 C           -2.71982095       -2.37841934       -2.29090278
 C           -3.84240846        0.90661814       -1.81894941
 C           -3.61041374       -0.24624387       -2.66318851
 C           -2.96878595        3.04267748       -1.08647346
 C           -1.74956386        3.76134372       -1.39353203
 C           -3.18395376        2.08042505       -2.14490749
 C            0.29812472        2.69272595       -2.17427831
 C            0.73711097        1.37331788       -2.36378057
 C           -1.03655744        3.00377754       -2.40754917
 C           -1.93914845        1.98333118       -2.90229943
 C            0.39864848       -0.83501805       -3.28065749
 C           -0.52766094       -1.95468706       -3.32626507
 C           -1.88998308       -1.69979365       -3.27997422
 C           -2.34773511       -0.32489330       -3.37150958
 C           -0.08252064        0.45059843       -3.03151433
 C           -1.43999549        0.72621881       -3.23168397
