   70
C70 / DATE: 7/ 1/2024 / Origin: Program Fullerene / C70 from database
 C            0.94761057        0.04411677        4.67161346
 C            2.23746769       -0.30506806        4.12078997
 C            2.22785578       -1.73601934        3.87703730
 C            0.13155074       -1.16343827        4.68163125
 C            0.84256296       -2.16267625        3.91351083
 C           -1.20093641       -0.79343773        4.26823251
 C            0.17077314        1.07684890        4.01772686
 C           -1.20828985        0.64648916        4.07298842
 C            0.62660482        1.65805266        2.83468630
 C            2.66302175        0.33315955        2.89232554
 C            1.85875190        1.29071449        2.28286793
 C            2.97922807       -1.98203388        2.66328389
 C            3.27404368       -0.68560909        2.05874996
 C            2.54559471       -3.00768656        1.83961841
 C            0.28109809       -2.69643829        2.74974318
 C            1.13280794       -3.37428009        1.87992176
 C           -1.74479433       -1.38580742        3.06273975
 C           -0.96044184       -2.23457189        2.27866225
 C           -2.04549771        0.91976219        2.92418230
 C           -2.51671416       -0.34752426        2.40336678
 C           -0.29958608        2.30021618        2.01062219
 C           -1.63175628        1.86443079        2.00102982
 C            0.16791419        3.01574287        0.90691770
 C            2.09890857        1.59274924        0.94741823
 C            1.40901328        2.65336610        0.36574610
 C            3.21242456       -0.54273016        0.67047794
 C            2.71735084        0.64356134        0.12310155
 C            2.94578602       -2.96911622        0.45022068
 C            3.26567157       -1.68064694       -0.13417414
 C            0.70587231       -3.64480506        0.52205960
 C            1.87172387       -3.54822811       -0.33216591
 C           -1.31844211       -2.40414463        0.93409353
 C           -0.48294485       -3.10358105        0.05810580
 C           -2.72220961       -0.45377411        1.03281187
 C           -2.38030431       -1.65162373        0.41466580
 C           -2.32802129        1.91459352        0.80106910
 C           -2.79108150        0.71247396        0.25626097
 C           -0.78866375        3.64131057        0.10790120
 C           -2.07852937        2.99553193       -0.02507245
 C           -0.42546464        4.18226896       -1.18508625
 C            1.74596971        3.00263932       -0.94006711
 C            0.87637925        3.86186390       -1.71849559
 C            2.55379086        0.73100181       -1.26030066
 C            2.24253534        1.96140765       -1.81785885
 C            2.66111177       -1.64601415       -1.45739273
 C            1.75466874       -2.77576377       -1.55346901
 C            2.24932205       -0.42254759       -1.97659974
 C           -0.62858402       -2.90930995       -1.31410542
 C            0.49074901       -2.53877940       -2.06884449
 C           -2.76853870       -1.83594581       -0.90580465
 C           -1.89128537       -2.58213279       -1.78778080
 C           -3.00280402        0.59342963       -1.12402196
 C           -3.24243924       -0.67946102       -1.64590472
 C           -2.38654431        2.90492357       -1.43585007
 C           -1.42714855        3.74207811       -2.14345743
 C           -2.74105356        1.67586092       -1.98032515
 C            0.68925969        3.23939325       -3.01962177
 C            1.44689023        1.99714353       -3.03171466
 C           -0.73602242        3.19495466       -3.29869513
 C            1.19223627       -0.39386045       -2.89517516
 C            0.35934617       -1.51784861       -3.00423896
 C            0.82903852        0.82996737       -3.47564410
 C           -2.01387226       -2.01124364       -3.11764380
 C           -3.00224776       -0.94923304       -3.04886004
 C           -0.82360694       -1.45550823       -3.72737860
 C           -2.45220000        1.45929229       -3.32935521
 C           -1.25612764        2.05611081       -3.89546526
 C           -0.36410288        0.94582421       -4.18672169
 C           -2.53908460        0.12814300       -3.89134865
 C           -1.20559430       -0.21853357       -4.36754059
