   70
C70 / DATE: 7/ 1/2024 / Origin: Program Fullerene / C70 from database
 C            1.35116575       -0.04461825        4.49048782
 C            2.62036400       -0.21287790        3.80946077
 C            2.56490848       -1.45627801        3.05551004
 C            0.51164947       -1.17851099        4.15190146
 C            1.25366992       -2.03660219        3.24250041
 C           -0.78184934       -0.67400444        3.71442707
 C            0.58556920        1.16333333        4.24765652
 C           -0.72393185        0.77456069        3.73460159
 C            1.22386678        2.26515588        3.69449703
 C            3.07621150        0.83327837        2.91159833
 C            2.46166789        2.07873033        2.94125519
 C            3.00574289       -1.18619526        1.70226957
 C            3.36216430        0.21852537        1.62676466
 C            2.30817848       -1.74962482        0.63446144
 C            0.57852712       -2.53066862        2.13521302
 C            1.21764737       -2.58711190        0.88959835
 C           -1.39534475       -1.30471643        2.64185211
 C           -0.80753534       -2.46628869        2.15677550
 C           -2.20041461       -0.56078672        1.77874763
 C           -1.30124542        1.49830612        2.69035604
 C           -2.01808341        0.82756482        1.69233372
 C            0.41661702        3.22744300        2.97237403
 C           -0.87610393        2.80395826        2.46284895
 C            2.33967901        2.82824436        1.70365924
 C            1.19805926        3.70244742        1.84345502
 C            3.07510422        0.89595264        0.44936590
 C            2.52964351        2.18491946        0.48424421
 C            2.42420847       -1.15453079       -0.62097844
 C            2.94082031        0.14664083       -0.71170152
 C            1.77433341       -1.73935380       -1.71045205
 C            0.50656324       -3.13476749       -0.18482782
 C            0.80424708       -2.72249646       -1.49355439
 C           -1.49402852       -3.19673993        1.20978970
 C           -0.72954855       -3.72274933        0.10006220
 C           -2.90123938       -1.24509468        0.78007871
 C           -2.69545254       -2.61747812        0.64275440
 C           -3.49502921       -0.53546653       -0.25949979
 C           -2.43137652        1.52364081        0.54876734
 C           -3.23140254        0.88446126       -0.39247732
 C           -1.01586043        3.37298405        1.13855087
 C            0.30084493        3.82935464        0.71504397
 C           -1.81837399        2.73129958        0.20442785
 C            1.91983410        2.70297078       -0.66740317
 C            0.74368615        3.46026690       -0.55140214
 C            2.88395305        0.83933678       -1.91000875
 C            2.26955458        2.15294617       -1.90112330
 C            1.89219914       -1.17044742       -2.97860232
 C            2.46965774        0.15015511       -3.10937681
 C            0.75463655       -1.21229006       -3.87774199
 C           -0.01311717       -3.10313129       -2.56362708
 C           -0.21164834       -2.17381738       -3.65853812
 C           -1.68104106       -3.99955251       -0.95624105
 C           -2.89546664       -3.25649136       -0.64751728
 C           -1.30868223       -3.70185619       -2.31601721
 C           -3.53376142       -1.10021915       -1.60356089
 C           -1.59921250       -1.75252169       -3.58165336
 C           -3.22312813       -2.43819655       -1.79805748
 C           -2.31106564       -2.80111698       -2.86821420
 C           -3.03338904        1.16710247       -1.80664310
 C           -2.98643711       -0.10226308       -2.50724985
 C           -1.88690864       -0.41518663       -3.30931299
 C           -1.58089561        3.01311053       -1.13895949
 C           -0.23062064        3.36658696       -1.54086908
 C           -2.15010979        2.16671932       -2.17178207
 C            1.33310304        2.20423362       -3.01213144
 C            1.49467209        0.98947341       -3.78867075
 C            0.33064146        0.16361464       -4.05841306
 C           -0.91880892        0.55827710       -3.57985410
 C            0.05642728        2.69079204       -2.79133829
 C           -1.09870559        1.86766460       -3.12988990
