   70
C70 / DATE: 7/ 1/2024 / Origin: Program Fullerene / C70 from database
 C            1.29418430       -0.07652134        4.99416887
 C            0.54296382       -1.25607851        4.59408567
 C            1.46119134       -2.15971806        3.94788283
 C            2.59412866       -0.14528985        4.35092652
 C            2.74290945       -1.47651055        3.81724577
 C            2.69865606        0.97575011        3.43768313
 C            0.60191150        1.08648818        4.46701635
 C            1.50221928        1.79377828        3.58811080
 C           -0.61764818       -0.80994635        3.85133096
 C           -0.64875550        0.63923032        3.91091023
 C           -0.96681889       -1.41947745        2.64146293
 C            1.11242483       -2.68120638        2.63988313
 C           -0.09695867       -2.33833965        2.03347016
 C            3.16472310       -1.61860982        2.43962315
 C            2.31551249       -2.63064415        1.83754621
 C            3.22337438        0.79601641        2.15629130
 C            3.50400836       -0.49802923        1.67890024
 C            3.03141330        1.84170034        1.25499002
 C            0.98224922        2.41284230        2.45331780
 C            1.87898899        2.71013117        1.43899340
 C           -1.15083291        1.29293453        2.80076043
 C           -0.37479790        2.25149692        2.12937171
 C           -1.89900738       -0.75287999        1.84141811
 C           -2.10450340        0.60962890        2.06945957
 C           -2.25789564       -1.29930064        0.60934495
 C           -0.22381356       -2.58348056        0.66390833
 C           -1.40696930       -2.23045094        0.01087745
 C            2.17949416       -2.63344996        0.45838314
 C            0.92083139       -2.88553658       -0.08488672
 C            3.69092172       -0.71050333        0.31307890
 C            3.09168177       -1.89090861       -0.28827400
 C            3.21448067        1.63668516       -0.16996057
 C            3.54563281        0.38099813       -0.63487365
 C            1.38236257        3.07987728        0.13255932
 C            2.19792610        2.40530674       -0.86491671
 C           -0.87331689        2.77598207        0.92223965
 C            0.01470837        3.17896918       -0.08646260
 C           -2.84248792        1.34722345        1.16756901
 C           -2.21282781        2.52535216        0.60369777
 C           -3.24937330       -0.67321753       -0.14786029
 C           -3.54572993        0.66307697        0.10605482
 C           -3.62175110       -1.21936823       -1.36975976
 C           -1.59565587       -2.59708139       -1.32459482
 C           -2.76140637       -2.21375562       -1.98269122
 C            0.82085546       -2.99765543       -1.46480370
 C           -0.48316243       -2.92419684       -2.09554385
 C            2.79152402       -1.57723574       -1.67489589
 C            2.87864291       -0.13491724       -1.82031088
 C            1.74615082       -2.23957646       -2.29265888
 C            1.57211900        1.89180253       -1.99909811
 C            1.80884161        0.56658932       -2.38383252
 C           -0.40281776        3.20700104       -1.41652310
 C            0.40870625        2.52562709       -2.41419715
 C           -2.69144064        2.66095788       -0.76318450
 C           -3.65935013        1.59925005       -0.99989558
 C           -1.79655016        3.00536069       -1.76046285
 C           -4.09399524       -0.32680663       -2.41774720
 C           -3.83740112        1.09539792       -2.28130535
 C           -2.68294741       -1.91273993       -3.40326263
 C           -3.52140506       -0.76122662       -3.67662626
 C           -0.28939054       -2.26411152       -3.37848905
 C            0.94061067       -1.51286665       -3.25206048
 C            0.87816556       -0.12203691       -3.17840112
 C           -1.37599874       -1.64892683       -3.97087539
 C           -0.48546701        1.86004049       -3.33726720
 C           -1.83799354        2.31100238       -3.03828473
 C           -2.90921736        1.47915378       -3.33812391
 C           -2.65775381        0.30489687       -4.15378167
 C           -0.25700443        0.52970104       -3.67267040
 C           -1.30206902       -0.21764816       -4.22397990
