   70
C70 / DATE: 7/ 1/2024 / Origin: Program Fullerene / C70 from database
 C            1.21237070       -0.00593227        4.46221690
 C            2.44780570       -0.29120325        3.77151322
 C            2.42104837       -1.69629195        3.41269717
 C            0.37284615       -1.19527382        4.37438366
 C            1.04067378       -2.13286524        3.50453202
 C           -0.95372850       -0.75307863        4.01867613
 C            0.40437132        1.10905278        4.01109999
 C           -0.96861757        0.68993007        4.18894752
 C            0.74179052        1.79419412        2.84390292
 C            2.75186150        0.44732343        2.56440887
 C            1.86637009        1.40900302        2.09270917
 C            3.08806032       -1.83316673        2.13495656
 C            3.31883948       -0.49168614        1.61401104
 C            2.60053565       -2.78977394        1.26138999
 C            0.40670897       -2.57624777        2.34370152
 C            1.20392320       -3.19652286        1.38750838
 C           -1.58445798       -1.29845048        2.90345155
 C           -0.83224030       -2.02764074        1.96568024
 C           -2.78215838       -0.71081066        2.51827821
 C           -1.96268294        1.40811360        3.54730814
 C           -3.04372051        0.65812039        2.93532226
 C           -0.22930649        2.61438364        2.25770526
 C           -1.57398632        2.44713702        2.60336531
 C            0.06833460        3.28197429        1.07365368
 C            1.97109721        1.79676267        0.76118067
 C            1.26234300        2.90868482        0.34097373
 C            3.14157930       -0.26413512        0.24846605
 C            2.51537482        0.91514414       -0.18027557
 C            2.85797137       -2.61488935       -0.15097349
 C            3.21695529       -1.35287095       -0.62156263
 C            0.68958607       -3.41205261        0.05143733
 C            1.82716909       -3.35880586       -0.84978753
 C           -1.29447844       -2.16686779        0.63929305
 C           -0.49966206       -2.80483906       -0.32606131
 C           -3.24229430       -0.84495583        1.15602779
 C           -2.54002166       -1.64489492        0.26580861
 C           -3.50172968        1.40219710        1.77659100
 C           -2.58611906        2.49716964        1.55619514
 C           -3.70085247        0.46150980        0.70142778
 C           -0.99053372        3.47964144        0.09848249
 C           -2.18531246        2.78586714        0.25729884
 C            1.00007767        3.09891084       -1.07152592
 C           -0.37386270        3.56480019       -1.20923742
 C            2.33317779        1.14564520       -1.55099027
 C            1.51415330        2.19131711       -1.99127677
 C            3.15963803       -1.12502253       -1.98971194
 C            2.76991745        0.18961772       -2.46699879
 C            1.60860999       -3.07015654       -2.18579453
 C            2.49175228       -2.11041034       -2.82397061
 C           -0.77016397       -2.64300272       -1.68910529
 C            0.25594600       -2.76890956       -2.62340552
 C           -2.83186233       -1.47846042       -1.08333229
 C           -1.93025205       -1.99939331       -2.08589814
 C           -3.39293935        0.84588680       -0.59732292
 C           -2.70645826        2.05121321       -0.82063534
 C           -3.29687661       -0.17692437       -1.53379775
 C           -1.10905453        3.18120232       -2.31868723
 C           -2.30844049        2.38115996       -2.11904291
 C            0.95055121        2.13856212       -3.26554558
 C           -0.39718245        2.64323415       -3.46163988
 C            2.04509636        0.00864352       -3.71586521
 C            1.72841184       -1.40008787       -3.83183103
 C            0.33969766       -1.80660904       -3.71337389
 C            1.05917774        0.92202456       -4.04548965
 C           -1.86937807       -1.04348591       -3.18289767
 C           -2.73160546        0.08126124       -2.84312236
 C           -2.34629717        1.37091361       -3.16595261
 C           -1.19241176        1.56268160       -4.02090253
 C           -0.65587185       -0.84002954       -3.84192869
 C           -0.29926396        0.44246487       -4.26665887
