   70
C70 / DATE: 7/ 1/2024 / Origin: Program Fullerene / C70 from database
 C            1.10238572       -0.02673209        4.98407864
 C            2.35608675       -0.29112052        4.30569711
 C            2.25332233       -1.61245502        3.70455454
 C            0.26790622       -1.20736862        4.82369966
 C            0.87347324       -2.02980438        3.79141856
 C           -1.09158616       -0.75627116        4.63490716
 C            0.31033263        1.12509414        4.58906243
 C           -1.07320675        0.69573113        4.52086585
 C            0.79171789        1.99726989        3.61978912
 C            2.81594978        0.62466799        3.27463881
 C            2.09313812        1.77314706        2.99729114
 C            2.85343015       -1.54280079        2.39751691
 C            3.30368612       -0.17896601        2.17191158
 C            2.24473703       -2.19550185        1.33724608
 C            0.16677466       -2.28942398        2.61244910
 C            0.86243059       -2.44488223        1.39569645
 C           -1.82923841       -1.26112063        3.49729092
 C           -1.22850783       -2.15646465        2.61393240
 C           -1.87511284        1.05440141        3.35924211
 C           -2.56997569       -0.14576933        2.93967729
 C           -0.10841216        2.49740126        2.59130463
 C           -1.34673785        1.89233345        2.38127306
 C            2.01332995        2.24083747        1.62427670
 C            0.70767986        2.85001917        1.44819198
 C            3.26006980        0.30540390        0.86339575
 C            2.54667159        1.47967037        0.57801532
 C            2.82930843       -1.96778584        0.10259460
 C            3.39794283       -0.64912095       -0.13585329
 C            2.13189049       -2.35411277       -1.09831638
 C            0.14969052       -2.70839377        0.21335165
 C            0.76178002       -2.56485604       -1.03536175
 C           -1.93913781       -2.45034797        1.45904669
 C           -1.22767775       -2.85937903        0.26618175
 C           -2.98316158       -0.24583857        1.62016745
 C           -2.96752133       -1.51254477        1.04208204
 C           -1.86106383        1.81972543        1.08280438
 C           -2.84192385        0.86609122        0.79007050
 C            0.14805966        2.81095319        0.18732798
 C           -1.19812967        2.48024734        0.04049060
 C            2.07124421        1.72110452       -0.72395479
 C            0.99902788        2.60380630       -0.88489204
 C            3.11423994       -0.30042477       -1.50981871
 C            2.66905609       -1.52067049       -2.15611379
 C            2.44572213        0.88512816       -1.78592918
 C            1.94442131       -1.40678036       -3.32471871
 C           -0.01111506       -2.33572485       -2.18130110
 C            0.63869163       -2.03846492       -3.37879939
 C           -2.02753780       -2.46076260       -0.88135207
 C           -3.12557705       -1.64088657       -0.39294924
 C           -1.38537853       -2.10217319       -2.06262865
 C           -3.35130792        0.78976121       -0.50016217
 C           -3.49494541       -0.52071733       -1.11874824
 C           -1.74429288        2.48869432       -1.24670346
 C           -2.86429545        1.70575862       -1.51653153
 C            0.50167905        2.86760448       -2.14830869
 C           -0.94193438        2.91906828       -2.30548679
 C            1.83316859        1.02570263       -3.03692305
 C            1.76627553       -0.08352662       -3.88783719
 C            1.04018739        2.14491658       -3.27896498
 C           -0.09504853       -1.37969049       -4.44259991
 C            0.68122908       -0.21471392       -4.84501845
 C           -2.03587958       -1.24163429       -2.95771090
 C           -3.04372922       -0.40231139       -2.48987905
 C           -2.97961015        1.01564598       -2.79391203
 C           -1.44672176       -0.93577324       -4.17995583
 C           -1.24887799        2.50069637       -3.66321563
 C            0.00168920        2.11384117       -4.29815909
 C           -0.23453828        0.88972704       -5.03328095
 C           -2.20741525        1.43139498       -3.86932629
 C           -1.56882764        0.41947091       -4.69682761
