   70
C70 / DATE: 7/ 1/2024 / Origin: Program Fullerene / C70 from database
 C            1.31722895        0.10607283        5.21825079
 C            0.51942339       -1.09910640        5.13426094
 C            1.30358566       -2.10656132        4.44217729
 C            2.52696676       -0.11488219        4.44287156
 C            2.50594793       -1.46812418        3.93611824
 C            2.61730904        0.95564516        3.48196965
 C            0.56766249        1.17699010        4.57615720
 C            1.43908145        1.79702385        3.61824076
 C           -0.77055130       -0.73075418        4.58085149
 C           -0.67542420        0.63527476        4.08629442
 C           -1.43715874       -1.65316301        3.79762372
 C            0.68479340       -2.81693867        3.33955909
 C           -0.69469130       -2.76940215        3.20990121
 C            2.54869218       -1.66905510        2.49442703
 C            1.49739169       -2.60684278        2.14960984
 C            3.04052808        0.68160625        2.18731486
 C            2.78192557       -0.58827368        1.64433651
 C            2.97994587        1.76552730        1.33230816
 C            0.90186566        2.30419786        2.44208827
 C            1.84998972        2.66718504        1.50543249
 C           -1.07617688        0.91901024        2.77346780
 C           -0.32523285        1.79670740        1.97094180
 C           -2.30389441       -1.14971692        2.75489452
 C           -2.03263593        0.09554399        2.18167201
 C           -1.26723580       -2.99883545        1.89830708
 C           -2.52344911       -2.27650051        1.88198715
 C            0.86895955       -2.48766397        0.91048039
 C           -0.44946073       -2.92674345        0.76865743
 C            2.38276896       -0.69767501        0.30211418
 C            1.41649516       -1.64226964       -0.06056269
 C            3.10509093        1.54557454       -0.08459959
 C            2.73382943        0.30764634       -0.59841703
 C            1.42421992        3.06531918        0.19113253
 C            2.53372924        2.73182198       -0.67861376
 C           -0.67134858        1.96119849        0.61095919
 C            0.13667761        2.74417661       -0.22699667
 C           -2.44272565        0.32687254        0.86771213
 C           -1.72543117        1.21843805        0.05835056
 C           -3.08348216       -2.02139890        0.65365626
 C           -3.25586546       -0.63235623        0.27146790
 C           -1.07094258       -2.79910272       -0.47153361
 C           -2.45498474       -2.63412787       -0.49113938
 C            0.82850545       -1.59047257       -1.32805902
 C           -0.33077428       -2.33768692       -1.56210152
 C            2.28222147        0.25929461       -1.92110244
 C            1.27655130       -0.65473313       -2.27442931
 C            2.27583550        2.69075421       -2.02360497
 C            2.45685671        1.41545152       -2.68384810
 C           -0.11731317        2.80053271       -1.60044184
 C            0.96069533        3.10549528       -2.44209833
 C           -2.00843731        1.30914125       -1.32000334
 C           -1.25141484        2.17338931       -2.12822651
 C           -3.40514366       -0.64049683       -1.16452310
 C           -3.05566121       -1.98097688       -1.62597586
 C           -2.95279334        0.44168432       -1.90289295
 C           -0.96047327       -2.26683374       -2.80265894
 C           -2.40767706       -2.08699294       -2.83971572
 C            0.68911672       -0.60766065       -3.55301664
 C           -0.38837968       -1.44047557       -3.84724243
 C            1.77595024        1.55181299       -3.95096220
 C            0.91907114        2.73013228       -3.83518791
 C            0.93727214        0.47245608       -4.40410965
 C           -1.48038732        2.22866182       -3.50921200
 C           -0.35692864        2.39516978       -4.40778358
 C           -0.17749669        1.12017214       -5.07438932
 C           -2.97979204        0.27398429       -3.28419129
 C           -2.68005024       -1.04724137       -3.80518696
 C           -1.50095897       -0.91651927       -4.62766119
 C           -2.30900443        1.22387709       -4.13241565
 C           -1.46280687        0.46574201       -5.05269094
