   70
C70 / DATE: 7/ 1/2024 / Origin: Program Fullerene / C70 from database
 C            1.30495257       -0.02686579        4.35983186
 C            2.59852821       -0.29654184        3.78078039
 C            2.61823718       -1.68864914        3.36522564
 C            0.49149954       -1.22827844        4.21912721
 C            1.26425336       -2.20359145        3.47796284
 C           -0.79479620       -0.81883742        3.69411888
 C            0.52717450        1.07974023        3.83735707
 C           -0.84976337        0.62529978        3.81658987
 C            1.00369809        1.83659680        2.76093283
 C            3.02848711        0.50178630        2.65371829
 C            2.29752113        1.61997410        2.25675752
 C            3.28181163       -1.76255139        2.07365462
 C            3.52445766       -0.39969141        1.62577922
 C            2.82681602       -2.69498555        1.15659048
 C            0.69816717       -2.82681259        2.36938767
 C            1.56216136       -3.36358656        1.41635313
 C           -1.27063424       -1.41354700        2.52899196
 C           -0.62750092       -2.54556158        2.01406867
 C           -2.21428576       -0.73106198        1.75251408
 C           -1.74924210        1.31664730        3.02885769
 C           -2.56783264        0.57237771        2.08628221
 C            0.08485269        2.61173230        2.03756753
 C           -1.27678439        2.48719202        2.31894132
 C            0.48646130        3.31753416        0.89902949
 C            2.65042907        2.17970997        1.03642680
 C            1.76909382        3.13189670        0.39677645
 C            3.33175217       -0.04861748        0.28824222
 C            3.18295218        1.30390397        0.00121005
 C            2.82477732       -2.34519117       -0.24893837
 C            2.84722738       -1.00054656       -0.61806109
 C            1.04158833       -3.81393737        0.13813272
 C            1.89671633       -3.25303642       -0.89955579
 C           -1.19466987       -3.20355934        0.92583712
 C           -0.33210163       -3.85308303       -0.04919051
 C           -2.59108401       -1.23816745        0.51064734
 C           -2.26970440       -2.55514400        0.19837525
 C           -3.03796279       -0.37173858       -0.49405133
 C           -2.94364064        1.49105622        1.02557476
 C           -2.24764940        2.74357608        1.27450311
 C           -3.04618365        1.01196283       -0.27727727
 C           -0.47330750        3.91590941        0.08084794
 C           -1.86733438        3.52058867        0.19808780
 C           -0.18771651        4.08464381       -1.33487351
 C            1.96912859        2.99783967       -1.03908381
 C            2.59152551        1.70681310       -1.25782806
 C            0.96465761        3.40750314       -1.89847136
 C            2.19095225       -0.59668911       -1.79014936
 C            1.94045280        0.75422284       -2.02971439
 C            1.34690366       -2.88235423       -2.11604913
 C            1.61565615       -1.54903427       -2.62463936
 C           -0.88407713       -3.60582607       -1.37148783
 C           -2.17863902       -2.96784085       -1.19194403
 C           -0.04559164       -3.18798015       -2.40009905
 C           -3.29025128       -0.87335449       -1.76774924
 C           -2.67134698       -2.12165427       -2.17472382
 C           -3.21659428        0.02370669       -2.89916162
 C           -2.89070186        1.90013645       -1.35133949
 C           -2.33310881        3.15811831       -1.12815039
 C           -1.36071162        3.66305603       -2.08080870
 C           -2.88283344        1.41238056       -2.65620148
 C            0.47913469        2.47554291       -2.90454351
 C            0.89210130        1.14074676       -2.87570132
 C           -0.92114684        2.78208070       -3.14781139
 C           -1.76327514        1.74817370       -3.52494061
 C            0.49983743       -1.16544963       -3.46786022
 C           -0.52022643       -2.20196650       -3.35547851
 C           -1.86051656       -1.83816016       -3.35028555
 C           -2.21886400       -0.51089352       -3.81350508
 C            0.12038474        0.17296352       -3.52774438
 C           -1.17427141        0.48937409       -3.93766243
