   70
C70 / DATE: 7/ 1/2024 / Origin: Program Fullerene / C70 from database
 C            1.09484140       -0.11357751        4.55644113
 C            2.30659210       -0.42346337        3.83279889
 C            2.15529837       -1.75441665        3.26569309
 C            0.23751014       -1.28696494        4.50028804
 C            0.79348477       -2.18681187        3.50501770
 C           -1.12308140       -0.82532838        4.33073028
 C            0.30461959        1.02431199        4.12880845
 C           -1.08891602        0.61867427        4.16219203
 C            0.73052479        1.80750059        3.05892308
 C            2.72025764        0.46088154        2.76058878
 C            1.99794456        1.61746781        2.48579719
 C            2.62953317       -1.70238418        1.89848950
 C            3.12364870       -0.36280638        1.64130363
 C            1.89282582       -2.31930498        0.90283967
 C            0.01374584       -2.57920429        2.41561116
 C            0.64297446       -2.87614815        1.19820956
 C           -1.89919690       -1.36694620        3.23675347
 C           -1.37345442       -2.38634651        2.44929750
 C           -1.93634184        0.95811258        3.02670592
 C           -2.56576293       -0.26244269        2.56703339
 C           -0.24064387        2.48706461        2.32598449
 C           -1.45720981        1.85413041        2.08346367
 C            0.17606434        3.47552981        1.45196619
 C            2.28529089        2.28664132        1.29484769
 C            1.56017569        3.44591857        1.03372893
 C            2.98245124        0.16960198        0.36257290
 C            2.83595652        1.55026931        0.23169165
 C            2.17752246       -1.97439871       -0.41009061
 C            2.57866448       -0.66294799       -0.69090753
 C            1.64452066       -2.76551181       -1.41617512
 C           -0.09422269       -3.45596537        0.16249001
 C            0.51122369       -3.61071202       -1.08507128
 C           -2.11900601       -2.73658837        1.33369773
 C           -1.48343416       -3.45124069        0.24559119
 C           -2.87211891       -0.41276861        1.21709577
 C           -2.97161739       -1.71566271        0.74137816
 C           -1.93793129        1.78783331        0.77520185
 C           -2.55845202        0.61376552        0.31609535
 C           -0.61838425        3.73291025        0.26640546
 C           -1.57497039        2.79688892       -0.12150363
 C            1.64058382        4.08411002       -0.26404358
 C            0.27817710        4.29424993       -0.73062008
 C            2.90063785        2.09010474       -1.04906847
 C            2.37315092        3.41470929       -1.31238314
 C            2.30191143       -0.10691054       -1.94724188
 C            2.54950622        1.24180462       -2.17245145
 C            1.38697711       -2.17252922       -2.71212778
 C            1.46617235       -0.78915896       -2.83017066
 C           -0.31322422       -3.72575859       -2.27807299
 C            0.28743483       -2.89952350       -3.31376359
 C           -2.28045319       -3.18391245       -0.94157672
 C           -3.02253420       -1.95780005       -0.68449757
 C           -1.72148012       -3.38686859       -2.19456643
 C           -2.74080644        0.40703971       -1.05842929
 C           -2.90517601       -0.88810379       -1.56266650
 C           -1.89003807        2.67312691       -1.47023745
 C           -2.51827475        1.45476617       -1.94675798
 C            0.19333827        3.81715156       -2.09752643
 C            1.50559074        3.32307539       -2.47492542
 C            1.62215910        1.97668010       -3.01166590
 C           -0.92260075        3.08800279       -2.47972346
 C            0.51066451       -0.07250404       -3.56956023
 C           -1.96257813        1.16764107       -3.26001239
 C            0.48327036        1.31959616       -3.46563501
 C           -0.75431521        1.96365878       -3.38208398
 C           -0.76688989       -2.14986672       -3.95421126
 C           -2.00931793       -2.43124633       -3.24999291
 C           -2.60712713       -1.15265666       -2.89847780
 C           -0.63832940       -0.70850538       -4.03964345
 C           -1.92735617       -0.14593282       -3.68985154
