   70
C70 / DATE: 7/ 1/2024 / Origin: Program Fullerene / C70 from database
 C            1.06302786       -0.11183318        4.67476727
 C            2.33463998       -0.40903820        4.06368159
 C            2.22983105       -1.73670512        3.47407198
 C            0.22283386       -1.28728354        4.50201258
 C            0.82454767       -2.07334069        3.44635164
 C           -1.12743908       -0.81606530        4.31938140
 C            0.30494742        1.01439985        4.17304294
 C           -1.08065467        0.63969406        4.32880166
 C            0.69197794        1.63972962        2.98600775
 C            2.82213983        0.46629625        3.01779313
 C            1.97925641        1.43033852        2.45827954
 C            2.94476194       -1.69389695        2.21817584
 C            3.57657916       -0.39100314        2.12959770
 C            2.33875832       -2.19615528        1.07447150
 C            0.18782531       -2.17499800        2.20707882
 C            0.95296814       -2.42068346        1.06407633
 C           -1.83797471       -1.19953551        3.11655612
 C           -1.16422018       -1.82923540        2.06913964
 C           -2.02185729        1.09719738        3.33227049
 C           -2.69232452       -0.07791932        2.79933134
 C           -0.26873945        2.33232049        2.23605271
 C           -1.63725460        2.08547408        2.43293273
 C            0.14754093        3.09810762        1.15178578
 C            2.31779615        1.96273814        1.20800046
 C            1.45633695        2.85522512        0.58080752
 C            3.88687181        0.08613252        0.86839588
 C            3.31335698        1.35410295        0.44182228
 C            2.98836943       -1.97117769       -0.13421694
 C            3.77536887       -0.82356545       -0.26077271
 C            2.47305852       -2.56494344       -1.27661409
 C            0.30666918       -2.64287949       -0.15181217
 C            1.07536567       -2.95802240       -1.26635066
 C           -1.73102370       -1.75436069        0.79192578
 C           -1.00285868       -2.19137086       -0.32180292
 C           -3.20976283        0.00682086        1.51699306
 C           -2.90628093       -1.01264939        0.61429879
 C           -2.53656456        2.34843530        1.40291688
 C           -3.44320127        1.28170728        1.01304656
 C           -0.76692937        3.36328189        0.05463742
 C           -2.09787312        3.01862918        0.19172913
 C            1.31055278        2.80338450       -0.86860818
 C           -0.08133089        3.05112529       -1.18803981
 C            3.16011523        1.29963952       -1.00629827
 C            3.65143246        0.00499603       -1.44850588
 C            2.01867992        1.84786975       -1.58748912
 C            2.75588046       -1.95876156       -2.56394849
 C            3.12950440       -0.55698856       -2.60055415
 C            0.53787368       -2.73895943       -2.59602206
 C            1.58475334       -2.12795114       -3.40051976
 C           -1.56673725       -2.12270837       -1.60348986
 C           -0.75756072       -2.25914457       -2.74012818
 C           -3.50956844       -0.97996863       -0.63732567
 C           -2.87916852       -1.67486335       -1.74327269
 C           -3.73830347        1.43693885       -0.39643201
 C           -2.79284489        2.40802652       -0.92943505
 C           -4.00335597        0.29670134       -1.13989260
 C           -0.71030430        2.26342993       -2.14739246
 C           -2.10347965        2.10650168       -2.10391702
 C            1.41004496        1.20223883       -2.66897366
 C            2.07382259        0.14930124       -3.30411072
 C            1.30714064       -0.85000956       -4.03101835
 C            0.07440189        1.47152366       -2.99523075
 C           -1.02611608       -1.49257660       -3.87590591
 C           -0.01028093       -0.56741772       -4.34126158
 C           -0.52480490        0.74948648       -4.02441487
 C           -3.27266125       -0.97939234       -2.95463380
 C           -3.72851792        0.33978969       -2.56173107
 C           -2.74457461        1.29623078       -3.03767182
 C           -2.28611770       -0.79257966       -3.99341885
 C           -1.96834533        0.63016879       -4.05902209
