   70
C70 / DATE: 7/ 1/2024 / Origin: Program Fullerene / C70 from database
 C            0.98464824       -0.07652999        4.70041769
 C            2.24492575       -0.42036049        4.07924431
 C            2.21594027       -1.84073984        3.78635484
 C            0.15620135       -1.27423916        4.72286607
 C            0.84521636       -2.28912579        3.95477466
 C           -1.18008135       -0.89539843        4.32577713
 C            0.19166889        0.98550287        4.11623788
 C           -1.18679682        0.54388570        4.12443750
 C            0.64554207        1.66159524        2.98749292
 C            2.62647234        0.26302150        2.86059412
 C            1.87194692        1.32855999        2.39018973
 C            2.84776896       -2.04294889        2.49299617
 C            3.06269997       -0.73040351        1.89839768
 C            2.35891554       -3.05907364        1.69026285
 C            0.22009493       -2.90678284        2.87177456
 C            1.04899343       -3.61251056        2.00322360
 C           -1.74948554       -1.49836874        3.13767320
 C           -1.02517533       -2.43902805        2.40655419
 C           -1.99544995        0.82158399        2.94997501
 C           -2.44871539       -0.44994099        2.41716572
 C           -0.29524210        2.35215926        2.22362641
 C           -1.56053265        1.78549243        2.04706068
 C            0.18386649        3.21534582        1.24874204
 C            2.09792694        1.74150944        1.08078564
 C            1.48032226        2.91220578        0.67515705
 C            2.77055401       -0.51540326        0.54779047
 C            2.45043400        0.78101003        0.12340563
 C            2.39743811       -2.88473485        0.25378067
 C            2.45538440       -1.59861570       -0.27733064
 C            0.50424576       -4.14943303        0.77645215
 C            1.43658168       -3.81825837       -0.29137883
 C           -1.42484478       -2.69064637        1.08834063
 C           -0.80091348       -3.69629667        0.35553217
 C           -2.58907777       -0.57223708        1.04075939
 C           -2.27526116       -1.78822180        0.43680330
 C           -2.11751623        1.78103139        0.76913309
 C           -2.63688212        0.58467008        0.25767468
 C           -0.68721050        3.59735007        0.15310070
 C           -1.82654829        2.83730099       -0.09110447
 C            1.43012970        3.24347163       -0.73139933
 C            0.18335315        3.95727159       -0.95287226
 C            2.19219202        1.01498851       -1.23508089
 C            1.84896549        2.30645826       -1.66670153
 C            1.92461210       -1.35390185       -1.54416963
 C            2.06188078       -0.08314633       -2.09545311
 C            0.65081337       -3.40217248       -1.43216082
 C           -0.74658731       -3.58988243       -1.08964254
 C            1.00343212       -2.24574201       -2.11559842
 C           -2.54047052       -1.94403176       -0.92068508
 C           -1.68151544       -2.79318380       -1.72938859
 C           -2.94429248        0.47594370       -1.10192812
 C           -2.87151427       -0.77123432       -1.71479825
 C           -2.38767944        2.84892652       -1.36156439
 C           -2.89055246        1.60538143       -1.91193625
 C           -0.34178737        4.00072027       -2.23555996
 C           -1.71582427        3.57187119       -2.43227213
 C            1.54534001        2.54736062       -3.00452375
 C            0.45171621        3.45362969       -3.32328195
 C            1.62078747        0.09900362       -3.40005280
 C            1.46282499        1.43707442       -3.92394928
 C            0.10561647       -1.76688251       -3.06757660
 C           -1.25345879       -1.99890275       -2.87136178
 C           -2.18259826       -0.88921596       -2.99178925
 C            0.48592121       -0.68351299       -3.84531355
 C           -2.36242627        1.47510989       -3.26200145
 C           -1.76380665        2.74768424       -3.62884613
 C           -0.44859297        2.76365859       -4.23319463
 C            0.16623206        1.50117969       -4.58370397
 C           -1.77177301        0.26914954       -3.64380212
 C           -0.52899286        0.25999922       -4.28413203
