   70
C70 / DATE: 7/ 1/2024 / Origin: Program Fullerene / C70 from database
 C            1.20197820       -0.20921005        4.34176316
 C            2.46618965       -0.55273736        3.73521432
 C            2.41871603       -1.95853364        3.36428537
 C            0.36849232       -1.40142781        4.34794066
 C            1.08756102       -2.45374881        3.65646374
 C           -0.95027369       -1.01786781        3.87489475
 C            0.42343690        0.86574066        3.75945995
 C           -0.95445096        0.42770092        3.70287187
 C            0.92072101        1.59572615        2.68643712
 C            2.90120021        0.19245279        2.57066470
 C            2.15042949        1.26155759        2.09642393
 C            2.93431542       -2.07341822        2.01114285
 C            3.41241246       -0.75889531        1.60773102
 C            2.26789210       -2.86322641        1.07689076
 C            0.42329276       -3.20215431        2.69580327
 C            1.07826332       -3.50180161        1.42886445
 C           -1.61121494       -1.80916057        2.93800635
 C           -0.98341955       -2.94156965        2.41801640
 C           -2.67856804       -1.24799801        2.24499901
 C           -1.78971887        0.98323816        2.73943528
 C           -2.82863195        0.19762387        2.24554246
 C            0.02660047        2.39547323        1.97701906
 C           -1.33782813        2.07251200        1.98548301
 C            0.54094997        3.25272083        1.00957005
 C            2.43891494        1.73997181        0.81962603
 C            1.80976429        2.90794011        0.40080546
 C            3.38080721       -0.42171614        0.25872217
 C            3.03881663        0.88329978       -0.11432334
 C            2.56145052       -2.67184156       -0.26906765
 C            3.24441628       -1.45257552       -0.66819950
 C            1.55750363       -2.96449293       -1.28121612
 C            0.03568379       -3.68922736        0.43075085
 C           -1.23957649       -3.34271649        1.04259361
 C            0.27399038       -3.34067766       -0.89483764
 C           -3.00950887       -1.72352821        0.90994812
 C           -2.19694270       -2.66927856        0.29066610
 C           -3.50147511        0.57438097        1.01458017
 C           -3.51211390       -0.58965804        0.14514312
 C           -2.19677013        2.63747414        1.04325823
 C           -3.25139906        1.82058813        0.46770167
 C           -0.32138300        3.79906656       -0.02263771
 C           -1.67135592        3.48552565       -0.01352468
 C            1.73814577        3.23944411       -1.01076732
 C            0.41908359        3.79381598       -1.27516664
 C            3.03931829        1.21470949       -1.46892235
 C            2.33467771        2.39699543       -1.93555796
 C            2.85471058       -1.15275540       -2.03500857
 C            1.73550277       -2.01556207       -2.37256315
 C            2.83818283        0.16589403       -2.45397745
 C            0.61616066       -1.48545674       -3.00886684
 C           -0.80644384       -3.01109552       -1.70780051
 C           -2.08116323       -2.66473321       -1.09621809
 C           -0.60805097       -2.12836010       -2.84696328
 C           -3.16198800       -0.45883192       -1.19616239
 C           -2.65741034       -1.57149205       -1.86370704
 C           -1.84493475       -1.39616108       -3.05460944
 C           -3.16494054        1.95138973       -0.97492265
 C           -2.33996725        3.11758557       -1.25254639
 C           -3.04702813        0.81151977       -1.77156743
 C           -0.23343849        3.49830243       -2.46782178
 C           -1.65720610        3.19562448       -2.45989654
 C            1.62643281        2.03981516       -3.15556286
 C            1.78498962        0.60636306       -3.34980747
 C            0.66079882       -0.19598474       -3.55049501
 C            0.40612361        2.63496498       -3.44985147
 C           -1.79515777       -0.15164348       -3.65569224
 C           -2.55235885        0.93920430       -3.06874364
 C           -1.90110823        2.17710665       -3.46472544
 C           -0.50451650        0.38275438       -4.05124755
 C           -0.62758178        1.83105545       -4.07574090
