   70
C70 / DATE: 7/ 1/2024 / Origin: Program Fullerene / C70 from database
 C            1.53746050        0.02987173        4.71374406
 C            0.71150548       -1.14219129        4.50644122
 C            1.37509319       -2.00199316        3.54097421
 C            2.68426415       -0.07887143        3.83057924
 C            2.53451489       -1.28701481        3.03684481
 C            2.81660765        1.18380045        3.13594342
 C            0.76702932        1.18461506        4.28575479
 C            1.58105358        1.92550066        3.34707387
 C           -0.63146861       -0.68766340        4.20122751
 C           -0.53144095        0.71809182        3.84183479
 C           -1.41745738       -1.51206938        3.41580260
 C            0.58561366       -2.70182157        2.63944854
 C           -0.79850723       -2.68185803        2.81515315
 C            1.09199407       -2.96115255        1.36838042
 C            2.74640263       -1.22186948        1.65912666
 C            2.03266296       -2.08062904        0.81546179
 C            3.35080374        1.16651450        1.85544379
 C            3.37048564       -0.09277290        1.12016889
 C            2.93238380        2.19703748        0.92118900
 C            0.97194058        2.50489076        2.24115436
 C            1.80132586        2.95208746        1.21760799
 C           -1.00689459        1.14479971        2.60134144
 C           -0.36239640        2.19020970        1.93719550
 C           -2.23678955       -0.91525580        2.37843907
 C           -1.92914442        0.36083094        1.90718447
 C           -1.65767063       -3.09161722        1.71817212
 C           -2.53447546       -1.96856650        1.42191374
 C            0.35360066       -3.79254200        0.53296499
 C           -1.09476654       -3.79140668        0.66302987
 C            0.67141961       -3.83647165       -0.87962707
 C            2.06050214       -1.85927129       -0.56796339
 C            1.47272006       -2.76807556       -1.43282860
 C            3.19150797        0.21853696       -0.28994888
 C            3.07308599        1.65659471       -0.42139929
 C            2.37715271       -0.59825787       -1.05350556
 C            2.27226207        2.18798217       -1.42515619
 C            1.22694950        3.68200286        0.19078972
 C            1.68343573        3.42260318       -1.15972777
 C           -0.91942518        2.69623811        0.76188069
 C           -0.21803916        3.70731283        0.11456600
 C           -2.27098058        0.69659607        0.59528158
 C           -1.83119974        1.90717968        0.04339373
 C           -2.76090906       -1.61536192        0.09889882
 C           -2.88648623       -0.26114098       -0.21328022
 C           -1.64713823       -3.61106959       -0.66630180
 C           -0.58011177       -3.87511016       -1.61312299
 C           -2.50633796       -2.54389956       -0.91790994
 C            0.79532118       -2.26200342       -2.61563769
 C           -0.45199370       -2.99801086       -2.76192084
 C            1.63478075       -0.05516344       -2.10531688
 C            1.67210545        1.32302324       -2.35229847
 C            0.81416568       -0.88989123       -2.87785625
 C            0.87885472        1.84995219       -3.37058644
 C            0.66096519        3.94114180       -2.04140607
 C           -0.55586616        4.06167440       -1.24580870
 C            0.33614797        3.18811520       -3.23095814
 C           -2.24130929        2.27809083       -1.25079686
 C           -1.58847905        3.31245155       -1.91965654
 C           -1.10774849        3.06651145       -3.26628969
 C           -3.36668586        0.10077759       -1.46029583
 C           -2.96571519        1.37248670       -2.02771325
 C           -2.69006432       -2.15905155       -2.24364735
 C           -1.57774147       -2.30465924       -3.17667173
 C           -3.32871134       -0.88593193       -2.51948941
 C           -0.19261993       -0.33588187       -3.67562590
 C           -0.17200925        1.03044086       -3.94649001
 C           -1.41929051        1.78838151       -3.86586744
 C           -2.54999386        1.13327688       -3.40723148
 C           -1.39888415       -1.02103916       -3.82530542
 C           -2.63736683       -0.29003454       -3.64676477
