   70
C70 / DATE: 7/ 1/2024 / Origin: Program Fullerene / C70 from database
 C            1.25414915        0.10194976        4.47386700
 C            2.49655878       -0.16736200        3.78797232
 C            2.47281184       -1.56286948        3.39001291
 C            0.40855691       -1.07900669        4.34533039
 C            1.09499399       -2.01170346        3.48178717
 C           -0.91301016       -0.62452249        3.96810376
 C            0.45935053        1.23348604        4.04623181
 C           -0.92619891        0.81378684        4.15082508
 C            0.85123677        1.98993560        2.93942150
 C            2.81702444        0.60651601        2.60542383
 C            1.91350257        1.55840590        2.13047367
 C            3.14123445       -1.66178498        2.10685905
 C            3.43505349       -0.30690509        1.65972140
 C            2.64043162       -2.56377864        1.18158418
 C            0.46692265       -2.47275917        2.32759081
 C            1.26538525       -3.02229046        1.32629380
 C           -1.52860114       -1.15399783        2.83932773
 C           -0.83216569       -2.05129871        2.01032333
 C           -2.66111561       -0.49869810        2.34879550
 C           -1.88842158        1.55534319        3.48356882
 C           -2.81813271        0.86573815        2.60083692
 C           -0.06636480        2.90212514        2.42964530
 C           -1.46559378        2.76672948        2.80379252
 C           -0.02469133        3.24996836        1.02380333
 C            1.95526696        1.90003251        0.77323491
 C            0.98502459        2.74197367        0.22067516
 C            3.35294150       -0.01188027        0.30324428
 C            2.84961320        1.23586557       -0.07398219
 C            2.86144134       -2.30196791       -0.22631433
 C            3.35318495       -1.06348119       -0.62130799
 C            0.71918607       -3.21616128       -0.00548004
 C            1.75051387       -2.87448494       -0.96718605
 C           -1.40637364       -2.45597880        0.80209324
 C           -0.58621898       -2.83613996       -0.26364242
 C           -3.33192423       -1.03536736        1.25716752
 C           -2.74271585       -2.16325967        0.56668529
 C           -3.81320857       -0.12200600        0.23487898
 C           -3.11876069        1.75080043        1.48462525
 C           -2.26975582        2.91232862        1.60211516
 C           -1.38128444        3.21434649        0.50840410
 C           -3.32609085        1.17850260        0.23430869
 C           -1.58844803        2.60529747       -0.72122810
 C           -2.59984626        1.64202930       -0.88018304
 C            0.77104059        2.71598523       -1.15590090
 C           -0.54145526        2.64296091       -1.63412488
 C            2.93055659        1.61854408       -1.40924171
 C            1.83777883        2.38415591       -1.97998350
 C            3.30719904       -0.76686335       -1.97793342
 C            3.32720979        0.62309005       -2.38336928
 C            1.38892728       -2.28770482       -2.17655718
 C            2.31761256       -1.45145218       -2.79827023
 C           -0.94871790       -2.52833917       -1.57635639
 C            0.03488117       -2.18580508       -2.51219230
 C           -3.23405821       -2.13748319       -0.79836091
 C           -3.89355590       -0.85533773       -1.00481801
 C           -2.28813770       -2.31395162       -1.88233322
 C           -2.73904320        1.00147872       -2.12485013
 C           -3.32650118       -0.26294631       -2.19501264
 C           -2.62954006       -1.33188225       -2.89217541
 C           -0.79655951        2.26209490       -2.94182271
 C           -1.94060776        1.40629178       -3.19611930
 C            1.59569746        1.89930819       -3.32861123
 C            2.47536050        0.76420504       -3.55157173
 C            1.89332726       -0.53624230       -3.84503225
 C            0.29411812        1.84079403       -3.80486887
 C           -0.33239688       -1.53905526       -3.69395741
 C           -1.67382162       -0.99154465       -3.83300483
 C           -1.53203097        0.41095311       -4.17494243
 C            0.58674186       -0.59607987       -4.30740911
 C           -0.13948676        0.64736914       -4.51088054
