   70
C70 / DATE: 7/ 1/2024 / Origin: Program Fullerene / C70 from database
 C            1.23998366       -0.09122663        4.69612561
 C            2.45653711       -0.41917546        3.99528109
 C            2.27778218       -1.73837693        3.39897685
 C            0.38687073       -1.26604759        4.63486206
 C            0.88372033       -2.08467380        3.54470427
 C           -0.97698275       -0.79066772        4.56972842
 C            0.44968261        1.02330470        4.21578518
 C           -0.92848319        0.66090259        4.45834949
 C            0.77294033        1.62795506        3.00019534
 C            2.89775040        0.45509153        2.92874357
 C            2.04437751        1.44260231        2.43006945
 C            2.83918400       -1.67544112        2.06794522
 C            3.55721594       -0.41739128        1.98604305
 C            2.07083847       -2.06630020        0.97331367
 C            0.09831734       -2.24355422        2.40261444
 C            0.70289381       -2.32235811        1.13326702
 C           -1.81986300       -1.26657069        3.49254795
 C           -1.29037796       -2.09892788        2.51087447
 C           -1.92002584        1.05272157        3.47855125
 C           -2.63765879       -0.14568245        3.07192130
 C           -0.23095953        2.28023026        2.27394808
 C           -1.58221139        1.97608372        2.49826347
 C            0.12849268        3.06129995        1.18052788
 C            2.32736607        1.98299777        1.16899987
 C            1.43494400        2.87344444        0.58276065
 C            3.82793529        0.07844412        0.72807856
 C            3.30184342        1.38693281        0.36732224
 C            2.55408679       -1.74656736       -0.29411959
 C            3.55676259       -0.78060117       -0.40352982
 C            1.80074091       -2.05752871       -1.42457660
 C           -0.08604453       -2.54984720        0.00033726
 C            0.43130530       -2.31370392       -1.27806079
 C           -2.08091761       -2.33133091        1.39770647
 C           -1.45343848       -2.72418138        0.15373885
 C           -3.20865500       -0.18204973        1.80092448
 C           -3.13156048       -1.37268070        1.07925533
 C           -2.50113249        2.14435754        1.46919954
 C           -3.35572931        1.02095260        1.11334263
 C           -0.82212452        3.28457728        0.10465690
 C           -2.12006718        2.83135998        0.24919921
 C            1.27167539        2.87873615       -0.86653203
 C           -0.13485532        3.06984161       -1.15730840
 C            3.13850994        1.39224861       -1.08261063
 C            3.57010689        0.08684244       -1.56084579
 C            2.01056817        1.99327593       -1.64304264
 C            2.30663059       -1.65809493       -2.65983674
 C            3.02591631       -0.40007768       -2.73061949
 C            1.46315419       -1.71185529       -3.83303812
 C           -0.44045685       -2.22609227       -2.38048470
 C            0.07132639       -2.05824913       -3.66749256
 C           -2.34160740       -2.32286519       -0.91658364
 C           -3.29428811       -1.36739044       -0.36543498
 C           -1.81832365       -2.08176495       -2.17601448
 C           -3.51846894        1.02623917       -0.33147808
 C           -2.76353614        2.15287467       -0.86039062
 C           -3.52902040       -0.17163216       -1.04323614
 C           -0.72917065        2.29639044       -2.14897179
 C           -2.09670759        1.99278470       -2.06927174
 C            1.45372572        1.46184947       -2.81347526
 C            2.17398081        0.47867559       -3.49664294
 C            1.50584571       -0.38821503       -4.44459398
 C            0.08747408        1.65028895       -3.08511207
 C           -0.65492444       -1.23214422       -4.61383279
 C            0.16413556       -0.05620609       -4.85482963
 C           -0.49860315        1.05416869       -4.20265569
 C           -2.55224375       -1.24274285       -3.00925031
 C           -3.25507162       -0.12560267       -2.40912474
 C           -2.64489580        1.07629709       -2.95652285
 C           -1.96972482       -0.75836043       -4.24347493
 C           -1.89649053        0.69240675       -4.13516657
