   70
C70 / DATE: 7/ 1/2024 / Origin: Program Fullerene / C70 from database
 C            1.19634204       -0.10712992        4.52974246
 C            2.38829656       -0.40539136        3.76922538
 C            2.23284308       -1.74775528        3.23276491
 C            0.34632772       -1.28672484        4.47860812
 C            0.84668038       -2.11997235        3.40495098
 C           -1.02046955       -0.82921030        4.41454716
 C            0.38034919        1.01827040        4.12361281
 C           -0.99725895        0.62611286        4.34097261
 C            0.68881061        1.71526750        2.95846097
 C            2.73921692        0.45580102        2.65627114
 C            1.90661281        1.50538061        2.29280541
 C            2.76617258       -1.73500389        1.89053819
 C            3.24832884       -0.39792297        1.60692240
 C            2.06587113       -2.37397138        0.88175561
 C            0.06920542       -2.33144934        2.26344651
 C            0.70270333       -2.65759028        1.05937258
 C           -1.85241567       -1.28550840        3.32172104
 C           -1.29294557       -2.00006989        2.25732967
 C           -1.99514376        1.02114444        3.35866572
 C           -2.73866249       -0.17965910        3.02417325
 C           -0.33303881        2.40683433        2.30716343
 C           -1.63209602        1.89249375        2.33146203
 C            0.01455094        3.31656122        1.32048105
 C            2.09397184        2.08371012        1.03879414
 C            1.33818095        3.21006252        0.73858682
 C            3.16721105        0.03748657        0.28759182
 C            2.68016775        1.32404382        0.00751938
 C            2.52970406       -2.17535188       -0.40975728
 C            3.11044780       -0.93387155       -0.71059742
 C            1.96067746       -2.95219089       -1.40767011
 C           -0.07349799       -2.98715297       -0.05606039
 C            0.57590068       -3.34613658       -1.24151691
 C           -2.01025608       -2.06571665        1.05905878
 C           -1.42179247       -2.61881028       -0.08179116
 C           -3.42593303       -0.21021881        1.82753056
 C           -3.19289990       -1.33020894        0.93658873
 C           -2.41001150        1.92696180        1.16814194
 C           -3.41616422        0.97673453        0.99228013
 C           -0.91798990        3.56616501        0.23854461
 C           -2.01810551        2.72808559        0.09178249
 C            1.26200741        3.67868420       -0.62423591
 C           -0.13723536        3.93011726       -0.93125749
 C            2.59799907        1.74859978       -1.33297534
 C            1.80408743        2.84207483       -1.66702617
 C            3.25375977       -0.51574422       -2.02549164
 C            2.86660408        0.83973868       -2.35682655
 C            2.18069377       -2.62401867       -2.80002313
 C            2.83006826       -1.37253400       -3.11660091
 C           -0.08723316       -3.16755016       -2.52450298
 C            0.88772729       -2.63228934       -3.45990352
 C           -2.10210562       -2.55239369       -1.29930980
 C           -1.36557751       -2.64100016       -2.54326842
 C           -3.64878335       -0.91021185       -0.37604436
 C           -3.76485619        0.54191262       -0.34855447
 C           -3.12583999       -1.54124436       -1.49171408
 C           -2.50985227        2.46735263       -1.18992922
 C           -3.32936759        1.29240668       -1.43021602
 C           -0.43923421        3.29906228       -2.20318142
 C            0.77701551        2.66681574       -2.68202830
 C           -1.64474235        2.63559483       -2.34886555
 C            1.92587728        0.75826282       -3.46468286
 C            1.92466849       -0.60088498       -3.95371842
 C            0.66505975       -1.30626556       -4.01220088
 C            0.72539288        1.44989451       -3.35794984
 C           -1.59981427       -1.39847442       -3.26440663
 C           -2.75485622       -0.75835904       -2.66194019
 C           -2.81225233        0.62624912       -2.61674084
 C           -1.68085951        1.39706688       -3.10537847
 C           -0.50863254       -0.63486254       -3.68078220
 C           -0.48961028        0.74790192       -3.43426396
