   70
C70 / DATE: 7/ 1/2024 / Origin: Program Fullerene / C70 from database
 C            1.72561791        0.02243088        4.64064594
 C            0.88194495       -1.14925231        4.49413282
 C            1.33682556       -1.89094129        3.32728714
 C            2.69480293       -0.00298433        3.56506655
 C            2.56086207       -1.26661412        2.86092730
 C            2.54503665        1.21393911        2.78552759
 C            0.88790999        1.19025687        4.44312913
 C            1.33180406        1.86877613        3.23379086
 C           -0.49695765       -0.70392834        4.53792740
 C           -0.49271069        0.75593563        4.52315350
 C           -1.42670166       -1.38861926        3.76701925
 C            0.39991008       -2.32358567        2.39075905
 C           -0.95487578       -2.29447536        2.72610388
 C            0.77533542       -2.43970881        1.04721383
 C            2.82097914       -1.25450541        1.49890395
 C            2.07097159       -2.07432942        0.65663687
 C            2.78283327        1.11648034        1.42401502
 C            3.32552117       -0.07650437        0.96478743
 C            1.99765341        1.85620761        0.53751710
 C            0.38125466        2.25705972        2.29143124
 C            0.71019312        2.23726777        0.92955464
 C           -1.42653182        1.42825323        3.74777938
 C           -0.95585505        2.29872733        2.67732101
 C           -2.57778797       -0.67866840        3.23730697
 C           -2.58396681        0.71186652        3.24249211
 C           -1.95333846       -2.31047605        1.67153664
 C           -3.01559713       -1.39409869        2.04994957
 C           -0.20338675       -2.67378855        0.07781166
 C           -1.53367814       -2.36515150        0.34772472
 C            0.17556397       -2.91357180       -1.23256947
 C            2.43164988       -2.11682983       -0.69556024
 C            1.54563283       -2.65370661       -1.62830658
 C            3.77114861       -0.10720754       -0.33901997
 C            3.46693614       -1.28623336       -1.12569016
 C            2.32566958        1.79542145       -0.82140194
 C            3.43704096        1.02355338       -1.17537348
 C            1.36316206        2.12403596       -1.78624147
 C           -0.28511580        2.41233715       -0.03847799
 C            0.06436198        2.45609690       -1.38962263
 C           -1.99065132        2.34422201        1.66644355
 C           -3.04766066        1.42922623        2.06799571
 C           -1.63786777        2.41258331        0.32554871
 C           -3.69306609       -0.71265689        1.05100524
 C           -3.73943340        0.74409880        1.07957197
 C           -2.35303794       -1.85656255       -0.66720136
 C           -3.47958691       -1.10817632       -0.33074259
 C           -0.69865154       -2.47296118       -2.30560195
 C           -1.89687432       -1.84231983       -1.98922058
 C            1.52293121       -2.15951888       -3.00041145
 C            0.13275323       -1.93440198       -3.37187399
 C            3.55038897       -0.88163270       -2.51919862
 C            3.62205041        0.57370086       -2.53883426
 C            2.50660473       -1.28525191       -3.43880812
 C            1.62289937        1.91314959       -3.14436731
 C            2.71375205        1.05039464       -3.54929219
 C            2.12262358       -0.11139615       -4.19878095
 C           -0.25182197       -0.75772984       -4.01801545
 C            0.52375301        1.57825479       -4.02373757
 C            0.71326337        0.18072727       -4.38952963
 C           -0.94313846        2.56746481       -2.35066172
 C           -0.74443469        2.00127513       -3.67642652
 C           -2.60914517        2.10640418       -0.62625616
 C           -3.61673827        1.20043468       -0.29410355
 C           -3.82590962        0.03935704       -1.14219744
 C           -2.31748278        2.30128309       -1.96804394
 C           -2.43739454       -0.93515800       -2.90142955
 C           -1.57409416       -0.33516004       -3.90941446
 C           -1.84550126        1.09205546       -3.92256537
 C           -3.36504079        0.09104556       -2.44630126
 C           -2.86760655        1.36378386       -2.93273781
