   70
C70 / DATE: 7/ 1/2024 / Origin: Program Fullerene / C70 from database
 C            1.64728704        0.10832108        4.60053053
 C            0.84070567       -1.09223885        4.48605866
 C            1.46099121       -1.95906697        3.50105736
 C            2.68365939        0.04326198        3.58529789
 C            2.57222924       -1.22801441        2.90713632
 C            2.59832157        1.24465926        2.78936441
 C            0.79639361        1.24148289        4.28365982
 C            1.45681258        2.01374474        3.24982808
 C           -0.53389858       -0.68819955        4.27452651
 C           -0.53516951        0.74196698        4.00675149
 C           -1.33753623       -1.50751100        3.50194782
 C            0.64772805       -2.72536196        2.66809460
 C           -0.73893544       -2.64274554        2.80870473
 C            1.18397186       -3.16510746        1.46134598
 C            2.73733253       -1.27798441        1.52629058
 C            2.28701784       -2.42012679        0.87529821
 C            2.79702326        1.16161191        1.41853974
 C            2.89516989       -0.09213866        0.79284149
 C            2.40169394        2.25538795        0.65451387
 C            0.67540385        2.63265529        2.28007447
 C            1.30041977        3.00195559        1.08796893
 C           -1.19493975        1.23462573        2.88249840
 C           -0.70330621        2.38668592        2.26836972
 C           -2.27891732       -0.89651733        2.58281033
 C           -2.09621599        0.42099010        2.18707565
 C           -1.60500402       -2.95285845        1.68190863
 C           -2.59547115       -1.88927029        1.58008308
 C            0.31078210       -3.59448550        0.37971290
 C           -1.07280143       -3.48516151        0.50971687
 C            2.10694014       -2.40647701       -0.56381247
 C            0.94732874       -3.21968544       -0.87741739
 C            2.90311140       -0.14328489       -0.60612175
 C            2.31125687       -1.22853048       -1.26201507
 C            2.79833650        2.29242946       -0.67593169
 C            3.14484667        1.03429773       -1.30831261
 C            2.05796690        3.09268620       -1.63652912
 C            0.59586822        3.79792905        0.19109244
 C            0.89878561        3.73291778       -1.22659417
 C           -1.48472477        2.98892858        1.29020725
 C           -0.84518096        3.86704661        0.32742328
 C           -2.57896231        0.82706050        0.94059622
 C           -2.44466219        2.16536242        0.57542824
 C           -2.99422910       -1.48510929        0.31386152
 C           -2.87420828       -0.13129305       -0.04194619
 C           -1.84551641       -3.40711607       -0.64666850
 C           -2.94644705       -2.45769096       -0.67567723
 C            0.14854359       -2.88317031       -1.96393092
 C           -1.18052215       -3.30038214       -1.93210700
 C            1.65729397       -1.04937866       -2.48385532
 C            0.53848939       -1.82908365       -2.80390756
 C            2.76803237        1.12082001       -2.70398863
 C            2.04997947        2.37210353       -2.89622606
 C            1.95760918        0.06099179       -3.26871133
 C            0.77385046        2.04808311       -3.50721252
 C            0.89354018        0.69687041       -4.02494210
 C           -0.34864426        3.46611611       -1.93088615
 C           -1.42961770        3.60510622       -0.97632844
 C           -2.36468676        2.50941919       -0.83277872
 C           -0.40145920        2.43279654       -2.86308756
 C           -2.87418935        0.24886657       -1.39365296
 C           -2.34015139        1.48110400       -1.76093443
 C           -1.50471013        1.57209450       -2.88314561
 C           -3.17047883       -2.08375929       -2.05347233
 C           -2.14749235       -2.73851562       -2.85435623
 C           -3.15075021       -0.67958198       -2.38955450
 C           -0.29366726       -1.41521387       -3.84726251
 C           -0.26242971       -0.02511150       -4.25772014
 C           -1.52625327        0.54743816       -3.82763091
 C           -1.69227914       -1.78779483       -3.84149722
 C           -2.45126468       -0.55985015       -3.65240069
