   70
C70 / DATE: 7/ 1/2024 / Origin: Program Fullerene / C70 from database
 C            1.56155077        0.02036945        4.69875556
 C            0.75515811       -1.17948085        4.59039758
 C            1.44089218       -2.10135986        3.70455540
 C            2.67270758       -0.10917774        3.77076139
 C            2.57291052       -1.39390824        3.12235327
 C            2.68156721        1.06322216        2.93599432
 C            0.74636627        1.13798896        4.25366843
 C            1.50435409        1.85603633        3.26002606
 C           -0.59235536       -0.77804069        4.24842534
 C           -0.54826099        0.62665015        3.86837573
 C           -1.34678293       -1.64525577        3.47839244
 C            0.68894540       -2.92935889        2.87604836
 C           -0.70793805       -2.81616915        2.88520435
 C            1.32715717       -3.45355063        1.75565417
 C            2.77967439       -1.48671201        1.74665703
 C            2.39502701       -2.67852951        1.14121298
 C            3.01584574        0.93914051        1.59231586
 C            2.89893497       -0.31723237        0.96833134
 C            2.80284921        2.07948004        0.83275703
 C            0.83490462        2.45284820        2.19951159
 C            1.64909896        2.89764576        1.17097422
 C           -1.08806835        1.01848139        2.64274355
 C           -0.46371836        2.02177121        1.87989573
 C           -2.23963692       -1.09195193        2.47843891
 C           -2.08842285        0.23214987        2.06602752
 C           -1.49024737       -3.17688542        1.70719205
 C           -2.44855879       -2.11163598        1.46956751
 C            0.54565188       -4.06033392        0.69513014
 C           -0.87426805       -3.78517038        0.62635482
 C            2.21240857       -2.73322395       -0.29257044
 C            1.13913278       -3.66898995       -0.57128918
 C            2.73673212       -0.38866655       -0.42991217
 C            2.25617999       -1.55915579       -1.02161521
 C            2.87462468        2.00751832       -0.60653339
 C            2.85747798        0.76166755       -1.21996189
 C            1.05480452        3.34712617       -0.06434275
 C            2.01597791        3.06799128       -1.11255538
 C           -1.03892146        2.39613395        0.65643504
 C           -0.28745690        3.09335324       -0.30130599
 C           -2.63673529        0.61075120        0.84174679
 C           -2.26300982        1.83785350        0.29106082
 C           -2.71835954       -1.68756110        0.17670893
 C           -3.17614826       -0.38455375        0.01713214
 C           -1.17353515       -3.31865414       -0.71763487
 C            0.07007310       -3.24280627       -1.45790258
 C           -2.10801242       -2.30980870       -0.91774216
 C            1.50958856       -1.47836443       -2.19375949
 C            0.28039774       -2.13220092       -2.26926143
 C            2.53026285        0.69601460       -2.57525665
 C            1.76537392       -0.43703382       -3.06394453
 C            1.56355894        2.99416532       -2.41832423
 C            2.01779344        1.88562506       -3.23635852
 C           -0.76254552        3.21201275       -1.60910001
 C            0.14241910        3.17345184       -2.67750833
 C           -2.89620549        2.28503210       -0.86387541
 C           -2.11163275        2.99171519       -1.86011228
 C           -3.67582852       -0.03668589       -1.22799699
 C           -3.77207585        1.36628911       -1.56228911
 C           -2.07237906       -1.61665232       -2.12770974
 C           -0.82980124       -1.43436226       -2.75765572
 C           -3.11106746       -0.72586241       -2.37238776
 C            0.68103330        0.06855766       -3.88632739
 C            0.91674667        1.48451747       -4.09547849
 C           -0.18224298        2.40298574       -3.87142690
 C           -0.62094739       -0.36566319       -3.64399986
 C           -2.50044224        2.49614328       -3.16920182
 C           -3.52995928        1.49261821       -2.98716384
 C           -2.99202551        0.22494269       -3.45354025
 C           -1.47306557        1.91887264       -4.01122447
 C           -1.67752652        0.47387587       -4.00153720
