   70
C70 / DATE: 7/ 1/2024 / Origin: Program Fullerene / C70 from database
 C            1.16728784       -0.15196539        4.51548520
 C            2.49473945       -0.34707658        3.96550655
 C            2.51298441       -1.64336127        3.30854730
 C            0.36759348       -1.31499369        4.16351575
 C            1.15824513       -2.15407483        3.29286736
 C           -0.90997010       -0.84654887        3.67946703
 C            0.41639571        1.03427429        4.14178002
 C           -0.90432140        0.60756996        3.71544153
 C            1.04727300        2.05724236        3.45159699
 C            3.02137515        0.63254981        3.03175587
 C            2.37472849        1.84935047        2.87722767
 C            3.19336714       -1.49183787        2.03682923
 C            3.48246476       -0.07710720        1.84976554
 C            2.73467747       -2.21390302        0.94103501
 C            0.62853427       -2.54703679        2.07005016
 C            1.51081024       -2.88640441        1.04419444
 C           -1.49606055       -1.46847377        2.58420792
 C           -0.71944814       -2.30066412        1.76453598
 C           -2.59432468       -0.82468622        2.03473183
 C           -1.58085389        1.29512077        2.70563494
 C           -2.63649420        0.62966111        2.09375581
 C            0.27944436        2.82920681        2.49248938
 C           -0.94113137        2.33819997        2.02221042
 C            2.37805413        2.47854264        1.57133819
 C            1.23582311        3.37288387        1.54657356
 C            3.31356562        0.48067629        0.57894426
 C            2.67181975        1.71731936        0.43883166
 C            3.16581174       -1.79166612       -0.31113663
 C            3.39887025       -0.37229228       -0.51815978
 C            2.53973573       -2.32601738       -1.50430258
 C            1.00381283       -3.55971445       -0.05968116
 C            1.60314862       -3.33810296       -1.36582686
 C           -1.22179416       -2.73478627        0.53061062
 C           -0.43622894       -3.59008198       -0.23766068
 C           -3.08911086       -1.22897678        0.73673251
 C           -2.33060947       -2.09475858       -0.04304676
 C           -3.14839292        1.10374529        0.82559106
 C           -3.68091504       -0.05233075        0.12776337
 C           -1.39895406        2.75559832        0.76270784
 C           -2.43202354        2.06106999        0.11702671
 C            0.76871584        3.80220771        0.32106401
 C           -0.65381257        3.70420932        0.06340211
 C            2.12084009        2.09443799       -0.79226723
 C            1.42124476        3.29689652       -0.87126931
 C            2.76672599        0.00043278       -1.76990865
 C            2.25778578       -1.20741716       -2.39519358
 C            2.00880117        1.15832669       -1.82550759
 C            1.04969821       -1.16008499       -3.08729910
 C            0.55211336       -3.45149844       -2.35664538
 C           -0.69463366       -3.71730722       -1.65472980
 C            0.31311500       -2.33342410       -3.25082144
 C           -2.54772534       -2.12783601       -1.42869922
 C           -1.71328542       -2.88081524       -2.25012062
 C           -1.12392381       -2.25222969       -3.42387083
 C           -3.78921339       -0.00392192       -1.24759160
 C           -3.33354944       -1.14249776       -2.02686573
 C           -2.62038481        2.16831092       -1.27018076
 C           -3.36676153        1.20006213       -1.94227250
 C           -0.80434162        3.81322768       -1.37031931
 C            0.49326277        3.51021932       -1.96314284
 C           -1.78267846        2.98017414       -2.03029537
 C            0.96199392        1.24003559       -2.74923261
 C            0.43711345        0.07465118       -3.32135263
 C            0.28855560        2.44482227       -2.92232566
 C           -1.13230831        2.41846225       -3.20342467
 C           -1.67005885       -1.06524727       -3.88402093
 C           -2.94663821       -0.64484230       -3.33560782
 C           -2.95255401        0.80671127       -3.27913118
 C           -0.81700225        0.11054859       -3.93750085
 C           -1.67102363        1.27723607       -3.77380620
