   70
C70 / DATE: 7/ 1/2024 / Origin: Program Fullerene / C70 from database
 C            1.25308565       -0.30627933        4.67942317
 C            2.37633420       -0.76649679        3.88139848
 C            2.18188095       -2.19114491        3.62846339
 C            0.32839021       -1.41475757        4.83095195
 C            0.83411225       -2.52140719        4.03797053
 C           -0.94084130       -1.00677618        4.25870901
 C            0.49858682        0.84188372        4.21800288
 C           -0.85372395        0.39794126        3.91185797
 C            1.11591164        1.72636868        3.35035532
 C            2.87886963        0.05551108        2.86759808
 C            2.36117365        1.33982001        2.69556696
 C            3.62511388       -0.51382157        1.83881938
 C            2.64144787       -2.72129001        2.43449977
 C            3.61764005       -1.95722994        1.68718087
 C            1.66978990       -3.24282929        1.47598553
 C           -0.14079877       -2.82433014        3.00501744
 C           -1.27698611       -1.94119702        3.20561295
 C            0.30415321       -3.06616546        1.70106665
 C           -1.91590744       -1.45540075        2.07967974
 C           -1.45799428        0.82198181        2.72852521
 C           -2.21338637       -0.09269439        1.98971822
 C            0.30641669        2.41584775        2.36503395
 C           -0.98874029        1.97327868        2.09557123
 C            2.37200390        1.94988402        1.37157931
 C            1.17017156        2.74801979        1.24855712
 C            3.58160874        0.07289950        0.50479575
 C            2.81547311        1.21649061        0.27727469
 C            3.42858165       -2.25744213        0.28272385
 C            2.20609705       -3.02744307        0.14606764
 C            3.53148940       -1.01403259       -0.45736443
 C            1.34741690       -2.68670101       -0.88852532
 C           -0.54165299       -2.75866253        0.62560811
 C           -1.77802638       -2.17479077        0.90419686
 C           -0.03348152       -2.71376731       -0.68232861
 C           -2.64237511       -1.86580801       -0.12913505
 C           -2.89783573        0.35578327        0.85972753
 C           -3.34124152       -0.59719649       -0.05740698
 C           -1.57620314        2.36363694        0.89183689
 C           -2.69763019        1.66832215        0.43136355
 C            0.57812922        2.89378164        0.00817537
 C           -0.79413296        3.07936637       -0.01901461
 C            2.21351054        1.40741116       -0.97531388
 C            1.19804469        2.36526368       -1.12473141
 C            2.72671665       -0.85514034       -1.57238808
 C            1.85157745       -1.88841703       -1.90886641
 C            2.40333911        0.43908802       -1.96347289
 C            1.10063583       -1.76180579       -3.06481821
 C           -0.87915372       -2.37679814       -1.74959160
 C           -2.20625492       -2.04920279       -1.49760570
 C           -0.32547593       -2.02414769       -2.98068670
 C           -3.66195314       -0.20061441       -1.41438964
 C           -2.86852009       -1.03579921       -2.30980572
 C           -3.34462784        2.11797967       -0.71948719
 C           -3.81581945        1.14602431       -1.69561468
 C           -1.35676225        3.51947959       -1.20294197
 C           -2.75066032        3.21896336       -1.45172755
 C            0.57144630        2.54145885       -2.36686086
 C           -0.61616535        3.27795956       -2.42942463
 C            1.82971347        0.60895505       -3.21485269
 C            1.28560156       -0.56759601       -3.86732285
 C            0.90160272        1.70188377       -3.43124613
 C           -1.00830066       -1.05435157       -3.82862531
 C           -2.19226844       -0.46699223       -3.38971971
 C            0.00348779       -0.21279082       -4.44063462
 C           -0.14205288        1.22347758       -4.33501617
 C           -3.44330494        1.61880542       -3.01401067
 C           -2.90640116        2.95967325       -2.87065784
 C           -1.58290636        2.97013456       -3.46859793
 C           -2.49580528        0.83808356       -3.79057823
 C           -1.42216349        1.73586181       -4.20615107
