   70
C70 / DATE: 7/ 1/2024 / Origin: Program Fullerene / C70 from database
 C            1.32359777        0.19990122        5.07552910
 C            0.52868998       -0.98023126        4.78190501
 C            1.39478426       -1.94154660        4.14116281
 C            2.56997583        0.08084371        4.33821313
 C            2.67075750       -1.28763608        3.88481139
 C            2.60434548        1.14334684        3.34638354
 C            0.61409614        1.35163877        4.54979304
 C            1.51047032        2.05254941        3.65424008
 C           -0.66069743       -0.55098421        4.07389939
 C           -0.66010719        0.89922072        4.02016451
 C           -1.08828057       -1.24159447        2.94537616
 C            0.95633647       -2.54230723        2.89433303
 C           -0.29671133       -2.24407295        2.37437932
 C            2.99929973       -1.52326635        2.49574740
 C            2.08471312       -2.53091064        1.98873222
 C            2.88693524        0.83878159        2.00933310
 C            3.31396483       -0.45415830        1.66332428
 C            2.48538772        1.73912994        1.00981437
 C            0.94339245        2.77110320        2.61692831
 C            1.60608696        2.76896109        1.32962012
 C           -1.16146090        1.51442402        2.87382424
 C           -0.48019816        2.61123017        2.34701019
 C           -2.01919321       -0.61392614        2.12844971
 C           -1.99500796        0.78164269        2.02787551
 C           -2.58669691       -1.34885820        1.09341689
 C           -0.54187928       -2.58546035        1.04807852
 C           -1.82291771       -2.38443940        0.54249173
 C            1.84582895       -2.55661511        0.61634193
 C            0.53224081       -2.68786616        0.15221775
 C            3.48796734       -0.76732603        0.32337286
 C            2.77898152       -1.92679529       -0.20140485
 C            2.70532237        1.44452826       -0.33729827
 C            3.37942256        0.27650029       -0.66872475
 C            1.95769330        2.10056008       -1.32309628
 C            0.61478125        3.16618934        0.35174976
 C           -0.69334618        2.97870770        0.95425954
 C            0.78749496        2.77363254       -0.96264903
 C           -2.47560965        1.38298141        0.86354388
 C           -1.68016984        2.32823306        0.21731107
 C           -3.56885278       -0.71936586        0.33668865
 C           -3.44771036        0.71070633        0.13570892
 C           -4.02638233       -1.31312835       -0.90235977
 C           -2.09089822       -2.86008393       -0.73716144
 C           -3.27798366       -2.42308600       -1.44397598
 C            0.28206742       -2.61860483       -1.22306265
 C           -0.99432523       -2.91259166       -1.68422928
 C            2.44638094       -1.64662735       -1.58722507
 C            3.08059676       -0.38439534       -1.92609715
 C            1.15805730       -1.90988226       -2.04656241
 C            2.13423943        1.73029650       -2.65641382
 C            2.53942350        0.36701456       -2.95066674
 C            1.11142974        2.08382398       -3.62915054
 C           -0.34262940        2.65334772       -1.76556544
 C           -1.56362018        2.29167734       -1.17793427
 C           -0.16376216        2.56737139       -3.13909093
 C           -3.56575493        0.95971066       -1.28842994
 C           -4.06316956       -0.26167165       -1.90512583
 C           -2.57325208        1.68563953       -1.93892553
 C           -2.88500673       -2.08190306       -2.80083728
 C           -1.45345474       -2.31958467       -2.92715189
 C           -3.40708176       -0.75902216       -3.10235725
 C            0.67021419       -1.20703555       -3.15642275
 C            1.46664441       -0.21436181       -3.73295165
 C            0.84279453        0.89436877       -4.42273892
 C           -0.66353973       -1.36379299       -3.55893014
 C           -1.19131281        1.95761011       -3.95146186
 C           -2.38136713        1.45196949       -3.29910873
 C           -2.60497477        0.11331727       -3.82210124
 C           -0.58028338        0.84219768       -4.66245047
 C           -1.30677682       -0.35002514       -4.27436930
