   70
C70 / DATE: 7/ 1/2024 / Origin: Program Fullerene / C70 from database
 C            1.56703168       -0.02816759        5.08580660
 C            0.78501409       -1.24333372        4.97160475
 C            1.68271506       -2.25970668        4.46952267
 C            2.72810412       -0.17933471        4.22221413
 C            2.82922743       -1.57634224        3.87843823
 C            2.60297400        0.78874253        3.15074352
 C            0.76702170        1.05141628        4.54581658
 C            1.55751249        1.71916247        3.52996684
 C           -0.42263324       -0.93008569        4.21375969
 C           -0.51680072        0.51276976        4.13191668
 C           -0.76320795       -1.69426287        3.09712117
 C            1.17472854       -3.17357226        3.47422303
 C           -0.13203398       -2.91893001        2.89007118
 C            2.87702284       -1.94614409        2.47585115
 C            2.12234391       -3.17033271        2.37284175
 C            2.66612465        0.38383811        1.81600839
 C            2.70045888       -0.97839436        1.48099448
 C            2.24351676        1.29436316        0.85260198
 C            0.85989832        2.33881297        2.50582312
 C            1.44605142        2.37750099        1.24464912
 C           -1.09103841        1.08334531        3.00621113
 C           -0.52684362        2.26971812        2.55285986
 C           -1.46923184       -1.10087718        2.03866735
 C           -1.74354129        0.27168366        2.07088914
 C           -1.70302817       -1.82839222        0.86312921
 C           -0.04387546       -3.42451114        1.54482518
 C            1.35541179       -3.37604114        1.17021077
 C           -0.93227886       -2.96516310        0.59348123
 C            2.28055966       -1.38487006        0.19995530
 C            1.66095501       -2.63252381        0.03811460
 C            2.28130678        0.92303136       -0.48529280
 C            2.15325504       -0.42683030       -0.81823622
 C            2.03628704        1.89854198       -1.43744823
 C            0.81505263        3.15193990        0.26957935
 C            1.25142760        3.05652962       -1.05037519
 C           -1.22726880        2.97717048        1.59870458
 C           -0.46738651        3.62696266        0.54783340
 C           -2.32441511        0.89643424        0.95960257
 C           -2.31707267        2.29126303        0.93766504
 C           -2.36752707       -1.21659247       -0.21341161
 C           -2.50351544        0.17692220       -0.23249052
 C           -2.48462973       -1.93462816       -1.41057017
 C           -0.53388271       -3.14531540       -0.71576075
 C            0.78170689       -2.78347737       -1.02489559
 C           -1.51008048       -2.97737967       -1.67281688
 C            1.60489030       -0.79590150       -2.06030821
 C            1.02163141       -2.06271915       -2.18606098
 C            1.64013109        1.51152767       -2.77365379
 C            1.44673912        0.16666922       -3.07193915
 C            0.35569661        3.37971691       -2.15365082
 C            0.68703191        2.50012194       -3.26171921
 C           -1.40595100        3.87084388       -0.52934454
 C           -2.55307860        2.99992275       -0.29867316
 C           -0.97712284        3.67858443       -1.89914588
 C           -2.74330314        0.84672741       -1.45096256
 C           -2.76036584        2.23736879       -1.50225105
 C           -2.01803237        2.90597204       -2.55520275
 C           -2.69966260       -1.22841369       -2.66039335
 C           -2.65445658        0.15800403       -2.66102695
 C           -1.09190028       -2.87171292       -3.05173847
 C            0.24590237       -2.37681834       -3.29644592
 C           -2.01393639       -1.97233172       -3.70842003
 C            0.77448909       -0.14924832       -4.25204151
 C            0.16437553       -1.45044213       -4.40018911
 C           -1.24851737       -1.24831571       -4.70295109
 C           -0.31870129        2.09117868       -4.12782745
 C           -1.70794299        2.17811692       -3.69200805
 C           -2.26648499        0.84549384       -3.81715757
 C           -0.16151663        0.81507507       -4.80375209
 C           -1.46533078        0.17564004       -4.82354211
