   70
C70 / DATE: 7/ 1/2024 / Origin: Program Fullerene / C70 from database
 C            1.26117047       -0.09182726        4.62927641
 C            2.49892451       -0.26377842        3.89541889
 C            2.39629145       -1.51285543        3.15910971
 C            0.39286658       -1.21231076        4.29392987
 C            1.01799550       -1.94966107        3.22042875
 C           -0.93393928       -0.68751235        4.07653979
 C            0.49135933        1.12665683        4.44992972
 C           -0.90411185        0.73618161        4.38223705
 C            0.96245899        2.12883946        3.60625152
 C            2.91909155        0.76279628        2.95731089
 C            2.19217568        1.93957930        2.84559606
 C            2.97957287       -1.29969832        1.85326585
 C            3.36776171        0.09167183        1.75041818
 C            2.36760419       -1.86067332        0.74407227
 C            0.32739092       -2.12693896        2.02399603
 C            1.05326002       -2.33692383        0.85157449
 C           -1.67251346       -1.12212882        2.97997010
 C           -1.03961076       -1.82953817        1.94221213
 C           -2.85596636       -0.44865796        2.71810086
 C           -1.81710367        1.56837690        3.74680946
 C           -2.95877251        0.94917343        3.10207539
 C            0.02844823        2.86525726        2.76477952
 C           -1.33131807        2.61112683        2.85038530
 C            1.99574992        2.52663953        1.53299840
 C            0.63336178        3.01695058        1.45352848
 C            3.21616091        0.70280097        0.50762151
 C            2.52975809        1.92008063        0.40481054
 C            2.81649657       -1.43749859       -0.50169198
 C            3.26970219       -0.11733212       -0.62514925
 C            2.35948924       -2.13350264       -1.61193146
 C            0.37874239       -2.72495894       -0.30350114
 C            1.11064707       -2.85952879       -1.48514758
 C           -1.71931603       -2.07365644        0.73616265
 C           -1.01518974       -2.62735935       -0.35095030
 C           -3.46439417       -0.57409009        1.41923780
 C           -3.00709173       -1.54262725        0.54001996
 C           -3.25059644        1.70892052        1.89950430
 C           -2.10828549        2.54369181        1.62277646
 C           -3.64834152        0.76643684        0.88609330
 C           -0.10461859        2.74966624        0.29852749
 C           -1.45596864        2.40437592        0.39569684
 C            1.96788365        2.25199964       -0.82262498
 C            0.58651695        2.48491491       -0.88128614
 C            3.26464028        0.50704735       -1.87059546
 C            2.63014626        1.80607832       -1.95489489
 C            2.40031373       -1.52500043       -2.92882975
 C            2.90030105       -0.23745795       -3.06276272
 C            0.44159639       -2.82281893       -2.77331649
 C            1.19780626       -1.93380981       -3.64540744
 C           -1.67571818       -2.88524000       -1.55421495
 C           -0.94388325       -2.81652083       -2.80916950
 C           -3.48163346       -1.41011799       -0.75687208
 C           -2.95824212       -2.26942553       -1.78699499
 C           -3.25214378        0.97756004       -0.42658022
 C           -2.08820031        1.73000536       -0.66719217
 C           -3.55994963       -0.06005300       -1.29193196
 C           -0.13168709        2.14460728       -2.02754130
 C           -1.41954087        1.60759430       -1.89766670
 C            1.97160158        1.90716212       -3.23823042
 C            2.26968020        0.69427667       -3.98181463
 C            0.53607474        2.08996038       -3.24857982
 C            0.52487771       -1.03489057       -4.46834797
 C            1.05715325        0.30113710       -4.67127868
 C            0.01488860        1.24914705       -4.30132209
 C           -1.64041531       -1.88049777       -3.68416355
 C           -2.85057470       -1.47361528       -2.99680072
 C           -2.98596862       -0.07873289       -2.61222471
 C           -1.95241586        0.79489086       -2.91427889
 C           -0.91460963       -0.90034785       -4.34928961
 C           -1.18783969        0.49598356       -4.03808144
