   70
C70 / DATE: 7/ 1/2024 / Origin: Program Fullerene / C70 from database
 C            1.66645957        0.08155029        4.76598111
 C            0.84069039       -1.11069880        4.70331113
 C            1.39440031       -1.98504526        3.68516200
 C            2.64883961       -0.00503130        3.70004777
 C            2.53273484       -1.30484285        3.08123346
 C            2.49512218        1.15412909        2.85559590
 C            0.81349774        1.22331815        4.48786866
 C            1.33804962        1.90218876        3.31448162
 C           -0.54135968       -0.69302757        4.58112309
 C           -0.55987390        0.75981801        4.46384876
 C           -1.39171127       -1.45722803        3.79286181
 C            0.53462571       -2.70730516        2.85874144
 C           -0.84635636       -2.54993260        2.99445689
 C            1.04684802       -3.19880398        1.66194450
 C            2.71264156       -1.41506419        1.70545137
 C            2.23065490       -2.56614430        1.10305931
 C            2.65673480        1.00922452        1.48904498
 C            2.86892101       -0.25868327        0.92598792
 C            2.12708064        2.00494464        0.68661226
 C            0.44885737        2.40032796        2.35909745
 C            0.89399557        2.55489171        1.03966491
 C           -1.43776167        1.36601310        3.57551117
 C           -0.92094744        2.32317586        2.60704975
 C           -2.43095907       -0.80833194        3.00834689
 C           -2.45616225        0.57194754        2.90451622
 C           -1.71434887       -2.71910147        1.83856701
 C           -2.65658344       -1.61001595        1.82140850
 C            0.15361237       -3.51962095        0.55883210
 C           -1.19215843       -3.17663232        0.63213624
 C            2.13685412       -2.63229725       -0.33810858
 C            0.89019541       -3.30094682       -0.67750498
 C            2.93220941       -0.36238912       -0.47375862
 C            2.54861193       -1.55306029       -1.10720776
 C            2.54750585        2.04992784       -0.62771133
 C            3.03434232        0.81700831       -1.21729929
 C            1.73141933        2.72853363       -1.61220903
 C           -0.01893879        2.89932778        0.03445559
 C            0.43639266        3.11747909       -1.27245752
 C           -1.84367250        2.33706085        1.49164423
 C           -2.71359644        1.18220779        1.61099852
 C           -1.37911277        2.65709247        0.23149130
 C           -2.95923715       -1.00623773        0.60320100
 C           -2.92777954        0.39008832        0.47920804
 C           -1.88235512       -2.88315436       -0.54032689
 C           -2.84701977       -1.79420060       -0.53361209
 C            0.21451865       -2.91704326       -1.83216630
 C           -1.17391405       -2.83991622       -1.81121998
 C            2.15093523       -1.54171120       -2.44208415
 C            0.92098556       -2.22601104       -2.81241484
 C            2.68219163        0.83690548       -2.62708081
 C            1.99220264        2.08993869       -2.89493437
 C            2.24833059       -0.33005087       -3.23254053
 C            1.02676261        2.15050892       -3.89070386
 C           -0.50324341        3.30124388       -2.28974694
 C           -0.13904617        2.98067725       -3.65994911
 C           -2.13563890        2.23860447       -0.84944389
 C           -2.75314007        0.98002237       -0.78393823
 C           -1.85707957        2.82285725       -2.07239770
 C           -2.83078982       -1.17457878       -1.83973108
 C           -1.86177312       -1.88060762       -2.66224214
 C           -2.90671616        0.20511564       -1.94373454
 C            0.21456375       -1.38803191       -3.76995550
 C            1.11030180       -0.29677322       -4.13827637
 C            0.57820489        0.92275334       -4.53589354
 C           -1.15512850       -1.16029053       -3.62040142
 C           -1.27839283        2.33732761       -4.28961922
 C           -2.30263127        2.16297522       -3.27508002
 C           -2.62064509        0.75677534       -3.18916913
 C           -0.85565168        1.01750943       -4.72167063
 C           -1.70656949        0.03934015       -4.06835248
