   70
C70 / DATE: 7/ 1/2024 / Origin: Program Fullerene / C70 from database
 C            1.40524669       -0.14088691        4.04262206
 C            2.57467827       -0.27700431        3.19148345
 C            2.53064003       -1.60194441        2.59121165
 C            0.56203727       -1.30540009        3.83757133
 C            1.26664535       -2.21976796        2.97124719
 C           -0.74093706       -0.84579463        3.42156740
 C            0.57615621        1.04111479        3.90098192
 C           -0.73572089        0.60558026        3.44854687
 C            1.13692466        2.17252798        3.33372628
 C            2.98341972        0.81343535        2.43076413
 C            2.45095204        2.07191575        2.71393714
 C            3.63367421        0.58891821        1.21823699
 C            3.02088631       -1.80249369        1.29985104
 C            3.59709986       -0.73368934        0.61289545
 C            2.52421833       -2.87683822        0.56199059
 C            0.56081579       -2.92399962        2.00487060
 C            1.32578894       -3.54974281        1.03236967
 C           -1.36992795       -1.47342659        2.35560847
 C           -0.77160165       -2.57175222        1.71649863
 C           -2.39071031       -0.78536475        1.71112899
 C           -1.38489281        1.28568368        2.41853341
 C           -2.37643346        0.61326675        1.70515352
 C            0.31927843        2.99488928        2.46286081
 C           -0.82291000        2.45136850        1.88258110
 C            2.53887586        3.13117155        1.72529327
 C            1.22508941        3.75063713        1.62792470
 C            3.54632437        1.56597594        0.14071309
 C            2.98382369        2.80813324        0.38315658
 C            3.31319390       -0.56377365       -0.80658578
 C            3.18964797        0.85569425       -1.07508607
 C            2.38301536       -2.73474175       -0.87743549
 C            2.45705708       -1.46334250       -1.42867725
 C            0.67833825       -4.14541291       -0.11182868
 C            1.34321617       -3.64121862       -1.30569050
 C           -1.45168966       -3.19259684        0.65405307
 C           -0.74119995       -3.93823520       -0.28770481
 C           -3.21010406       -1.48579339        0.83959806
 C           -2.72685382       -2.74521623        0.30361476
 C           -3.92023186       -0.78038658       -0.21481416
 C           -3.09822858        1.31394033        0.74674525
 C           -3.79166210        0.59565529       -0.30785917
 C           -1.27478402        2.94257101        0.64899855
 C           -2.50553728        2.50356581        0.16500985
 C            0.90077956        3.88911697        0.22584542
 C            1.99919240        3.33174866       -0.54674109
 C           -0.39506658        3.62456010       -0.20624969
 C            2.13275744        1.30950029       -1.85450899
 C            1.68682519        2.63171093       -1.71003552
 C            1.39867622       -0.97561970       -2.21019225
 C            1.37346601        0.37628024       -2.57081615
 C            0.31664656       -3.14719183       -2.19508849
 C           -0.94218721       -3.67134718       -1.70265005
 C            0.36365464       -1.82845671       -2.63658960
 C           -3.13173944       -2.80908132       -1.09144523
 C           -3.80691526       -1.56662116       -1.42473916
 C           -2.11505644       -3.05115049       -2.09825673
 C           -0.78876145       -1.29019366       -3.21560316
 C           -3.13656857       -0.98425917       -2.57254869
 C           -2.03080258       -1.85938679       -2.92959296
 C           -3.40227432        1.19607054       -1.57700965
 C           -2.75160068        2.46378262       -1.26802333
 C           -2.93551399        0.39220992       -2.62453474
 C           -0.57339524        3.52974318       -1.58454446
 C            0.53870649        3.03676125       -2.38142689
 C           -1.79858899        2.97704524       -2.13134860
 C            0.42004186        0.81700620       -3.47883914
 C           -0.76485076        0.01249910       -3.69423207
 C           -1.92220525        0.86195124       -3.45552895
 C            0.00059280        2.20029081       -3.42982027
 C           -1.44943112        2.22580886       -3.32114353
