   70
C70 / DATE: 7/ 1/2024 / Origin: Program Fullerene / C70 from database
 C            1.03340512       -0.11679637        4.63054026
 C            2.33335279       -0.44967944        4.09300717
 C            2.21783936       -1.75118659        3.44747431
 C            0.19818054       -1.29240947        4.46128572
 C            0.81474060       -2.09624734        3.42436945
 C           -1.14654810       -0.81818696        4.24570210
 C            0.31045483        0.99493503        4.04061526
 C           -1.08514584        0.63167827        4.09248285
 C            0.81777795        1.59397562        2.88871048
 C            2.92426226        0.44800400        3.12195448
 C            2.19868995        1.54247710        2.65992699
 C            2.92409438       -1.67077851        2.19016692
 C            3.59866971       -0.38324009        2.14502263
 C            2.31159071       -2.12710811        1.03301549
 C            0.16758121       -2.23784401        2.19366668
 C            0.91826326       -2.30556212        1.00850094
 C           -1.87549998       -1.31914180        3.10125736
 C           -1.22362848       -2.07727164        2.12634677
 C           -1.93551440        0.97569433        2.97304650
 C           -2.69218030       -0.21619151        2.65427843
 C           -0.05113781        1.99973132        1.85678153
 C           -1.42503341        1.72007046        1.91240940
 C            0.47692968        2.58725446        0.70671034
 C            2.72698502        2.22751231        1.57717150
 C            1.82574762        2.91786984        0.67988044
 C            3.88980993        0.17173903        0.90088238
 C            3.71644289        1.54891316        0.75173259
 C            2.97989002       -1.85559808       -0.15008352
 C            3.80927092       -0.66030197       -0.21900965
 C            2.29382229       -2.00095197       -1.41313107
 C            0.25165335       -2.45670387       -0.21350040
 C            0.93323892       -2.27432319       -1.42465932
 C           -1.87048605       -2.21410736        0.89646199
 C           -1.13372024       -2.61799939       -0.21817213
 C           -3.21877807       -0.30442912        1.38440226
 C           -3.06398280       -1.50669977        0.70827315
 C           -2.17904366        1.74656247        0.73242232
 C           -3.25475901        0.85307909        0.62214341
 C           -0.26703968        2.58203137       -0.47694713
 C           -1.63754841        2.33317367       -0.41664828
 C            0.37294005        2.60698286       -1.72646520
 C            2.50201034        3.03333385       -0.59465593
 C            3.65003592        2.13802213       -0.57241418
 C            1.75224445        2.75752787       -1.79902566
 C            3.67363224       -0.10287414       -1.55794399
 C            2.82436583       -1.00159671       -2.32500982
 C            3.55823743        1.27072349       -1.73026959
 C            2.51168641        1.80320011       -2.58703547
 C            1.99041730       -0.49068819       -3.30958431
 C            1.81671738        0.95015853       -3.43487010
 C            0.21954635       -2.05067845       -2.60313154
 C            0.68995897       -1.10871795       -3.51440919
 C           -1.78692891       -2.80304140       -1.43308622
 C           -1.12500697       -2.38385126       -2.65278902
 C           -3.78234152       -1.66912322       -0.46964190
 C           -3.18543407       -2.42944049       -1.54706297
 C           -4.02215304        0.81710685       -0.53514490
 C           -4.40708952       -0.48900496       -1.05131525
 C           -2.36474000        2.33010082       -1.60390631
 C           -3.63846407        1.64048535       -1.65887234
 C           -0.28199416        2.08676467       -2.84104833
 C            0.40114595        1.19728687       -3.66546967
 C           -0.21849703       -0.07722397       -3.98436731
 C           -1.66684385        2.04587436       -2.84212973
 C           -2.03419757       -1.49767188       -3.36346237
 C           -3.35150680       -1.66996112       -2.77787906
 C           -4.15378855       -0.50157710       -2.48130050
 C           -3.64437509        0.80278368       -2.85031545
 C           -1.58214990       -0.23484440       -3.75682513
 C           -2.33007463        0.90800096       -3.45905916
