   70
C70 / DATE: 7/ 1/2024 / Origin: Program Fullerene / C70 from database
 C            1.38509366        0.13833201        4.72273035
 C            0.61199264       -1.07879805        4.58276934
 C            1.28759942       -1.93920341        3.62567511
 C            2.59052486       -0.01884770        3.93229343
 C            2.58494335       -1.34784264        3.34768407
 C            2.67742257        1.11874941        3.03881504
 C            0.60600404        1.21417334        4.13024637
 C            1.39275451        1.79526874        3.06697374
 C           -0.74969882       -0.68687885        4.28899137
 C           -0.69938506        0.68507255        3.80337120
 C           -1.52321902       -1.58277024        3.57632585
 C            0.53148443       -2.49208330        2.59008608
 C           -0.84193693       -2.60266294        2.78632790
 C            1.03388764       -2.48870231        1.28268412
 C            3.13417251       -1.49999139        2.08554055
 C            2.37801445       -2.20883438        1.06565405
 C            3.27602079        0.94127642        1.80026237
 C            3.71102309       -0.33613282        1.43573070
 C            2.92690298        1.82061455        0.78292664
 C            0.78671761        2.09039442        1.85015207
 C            1.61596043        2.32137022        0.75779370
 C           -1.26338589        0.97589186        2.55976370
 C           -0.55047971        1.73844500        1.62033163
 C           -2.54774165       -1.04637392        2.71089201
 C           -2.34815085        0.20685749        2.13439231
 C           -1.70227283       -2.90807603        1.65761557
 C           -2.92710268       -2.14701534        1.85546385
 C            0.15684733       -2.52233851        0.19143322
 C           -1.15309398       -2.97112657        0.38006283
 C            0.54186074       -1.95971396       -1.03671767
 C            2.79226284       -1.68372912       -0.22565536
 C            3.80365072       -0.66833889        0.02308658
 C            1.83194205       -1.46250076       -1.21138616
 C            3.63253913        1.70910962       -0.40557450
 C            3.92348891        0.36985046       -0.88402575
 C            3.20748544        2.49088194       -1.54426042
 C            1.04743091        2.74033900       -0.44403644
 C            1.89185129        3.08845030       -1.49633825
 C           -1.09847549        1.93865591        0.34740252
 C           -0.31586662        2.50218361       -0.67525365
 C           -2.93693658        0.47091731        0.90012374
 C           -2.36994914        1.43309371        0.06427106
 C           -3.69858882       -1.86022098        0.74710325
 C           -3.83234939       -0.46298661        0.36977138
 C           -2.03167543       -3.00379946       -0.69901170
 C           -3.40534339       -2.58679367       -0.47115206
 C           -0.37968669       -1.82610997       -2.07311473
 C           -1.61572185       -2.45479622       -1.97673130
 C           -0.15458388       -0.88885653       -3.08422083
 C            2.08335015       -0.53369477       -2.22723597
 C            3.23704339        0.25291755       -2.15392976
 C            3.21962004        1.59688032       -2.69017364
 C            1.06964786       -0.21489772       -3.14442703
 C            1.39324779        3.04502482       -2.84945433
 C            2.11683671        1.98015335       -3.53380168
 C            1.12963104        0.97848992       -3.87163190
 C           -0.86329094        2.71462148       -1.95265950
 C           -0.01283473        2.78739487       -3.05382573
 C           -0.09007985        1.73252864       -4.05058101
 C           -2.95835285        1.69525287       -1.16645127
 C           -2.17083101        2.31694680       -2.21272406
 C           -4.14762846       -0.43685761       -1.04657957
 C           -3.81104254       -1.74879627       -1.58132021
 C           -2.78072915       -1.84434915       -2.59967933
 C           -3.80063235        0.68156680       -1.78649581
 C           -1.23950006       -0.38546241       -3.81047944
 C           -1.27374733        1.02944340       -4.14135624
 C           -2.41834190        1.57964622       -3.44234775
 C           -2.59288481       -0.75757429       -3.43769630
 C           -3.30371463        0.47636187       -3.13441839
