   70
C70 / DATE: 7/ 1/2024 / Origin: Program Fullerene / C70 from database
 C            1.37833060       -0.00221931        4.44375530
 C            2.58604701       -0.32183180        3.71967690
 C            2.52891502       -1.72891995        3.35730688
 C            0.52020192       -1.17376736        4.43157987
 C            1.26919910       -2.26944202        3.84050840
 C           -0.75295797       -0.79190404        3.83207414
 C            0.58947528        1.11406217        3.97790582
 C           -0.75887010        0.64443907        3.70642105
 C            1.13840760        2.01814121        3.07855705
 C            2.89077942        0.43831243        2.51979429
 C            2.15042105        1.57757254        2.20596854
 C            2.84333731       -1.84009500        1.94089234
 C            3.18191342       -0.51079289        1.46206712
 C            2.06948046       -2.67765945        1.13505083
 C            0.58392532       -3.15745876        3.02744165
 C            1.17719823       -3.54646615        1.76030868
 C           -1.26422253       -1.56975190        2.80429970
 C           -0.81101335       -2.88307569        2.73177861
 C           -1.80470505       -0.94887008        1.66293272
 C           -1.44680404        1.24541304        2.66034023
 C           -1.90756661        0.45410645        1.59618730
 C            0.25798603        2.98808813        2.62491286
 C           -1.12309250        2.57419676        2.41653708
 C            0.64617265        3.80877792        1.50180469
 C            2.16286427        2.02178247        0.87718981
 C            1.59390348        3.25098565        0.56599954
 C            2.85415764       -0.18247528        0.15747932
 C            2.44397808        1.11690212       -0.15054204
 C            1.90788918       -2.35555945       -0.22254817
 C            2.54262570       -1.21290232       -0.71912593
 C            0.95923462       -3.02417369       -1.01653417
 C            0.10616360       -4.14139588        0.99424905
 C           -1.14858562       -3.68949000        1.58741051
 C            0.02396809       -3.86527600       -0.42128544
 C           -2.22993832       -1.72910501        0.57645090
 C           -1.92310007       -3.09054513        0.52790847
 C           -1.37816169       -3.63516862       -0.69879184
 C           -2.61762909       -1.11012847       -0.61127698
 C           -2.34438360        1.06822623        0.40706809
 C           -2.78541131        0.27251991       -0.66157562
 C           -1.60119359        3.21550850        1.21831827
 C           -0.56107320        4.12532582        0.76758203
 C           -2.27231006        2.46686717        0.26334744
 C            1.07308139        3.47923294       -0.77312727
 C           -0.22634451        4.12555813       -0.64199588
 C            2.10914157        1.42524640       -1.47302449
 C            1.25232953        2.49838425       -1.74587135
 C            2.47707839       -0.91794241       -2.07141802
 C            2.36845516        0.47758640       -2.45959060
 C            0.67631315       -2.54585602       -2.29894398
 C            1.57513618       -1.67962283       -2.90900559
 C           -1.70415089       -3.00230724       -1.87913931
 C           -2.56398548       -1.83965130       -1.80326525
 C           -0.62999489       -2.64308135       -2.78885867
 C           -2.41308547       -1.14316355       -3.06637879
 C           -1.16428228       -1.60559912       -3.66098661
 C           -3.13488812        0.85512596       -1.88231532
 C           -2.74879969        0.19813717       -3.11835434
 C           -2.37191223        3.03689642       -1.00184666
 C           -1.22695628        3.76626860       -1.52776741
 C           -2.93147620        2.26829210       -2.08502194
 C            0.36934054        2.44294633       -2.83472977
 C           -1.90447748        1.12333398       -3.85878463
 C           -0.85453816        3.10313563       -2.75858553
 C           -2.04707578        2.42413299       -3.23122066
 C            1.63104193        0.53130445       -3.70321126
 C            1.12353399       -0.80387545       -3.97799285
 C           -0.29735049       -0.69554427       -4.25100818
 C            0.52724867        1.46080996       -3.80893124
 C           -0.63893892        0.71749847       -4.26804969
