   70
C70 / DATE: 7/ 1/2024 / Origin: Program Fullerene / C70 from database
 C            1.62444271        0.03162845        4.57670604
 C            0.81196719       -1.16598487        4.52473085
 C            1.27395849       -1.98979567        3.41751899
 C            2.62890523       -0.07716522        3.53760013
 C            2.40244703       -1.31384159        2.81223897
 C            2.60908267        1.15928265        2.77712147
 C            0.76278462        1.14905611        4.23118329
 C            1.39376912        1.86131627        3.14515216
 C           -0.57300531       -0.74060126        4.51026892
 C           -0.57281401        0.63001720        4.02128260
 C           -1.48413853       -1.61527786        3.95491141
 C            0.30838874       -2.58431239        2.60906586
 C           -0.95805597       -2.72072431        3.16977200
 C            0.44098962       -2.52041421        1.20873217
 C            2.49979659       -1.26294586        1.43349176
 C            1.60155894       -1.98510121        0.64252943
 C            2.92001546        1.09247882        1.42090767
 C            3.15178293       -0.16906217        0.87415178
 C            2.42551478        2.09427353        0.57817971
 C            0.61103316        2.34203350        2.11099230
 C            1.28156660        2.79540996        0.98678155
 C           -1.23814957        0.92978798        2.82758592
 C           -0.70481850        1.88101712        1.95051960
 C           -2.54014551       -1.06263170        3.13902200
 C           -2.26805677        0.08836218        2.39247116
 C           -2.04693185       -3.18940342        2.34948138
 C           -3.12457877       -2.21699734        2.49475664
 C           -0.62317290       -2.89311951        0.37152349
 C           -1.81668679       -3.35518207        0.93371751
 C           -0.59877923       -2.54216702       -0.99124054
 C            1.72571588       -1.90011242       -0.74632973
 C            0.58617720       -2.03804167       -1.55385355
 C            3.50669590       -0.25314495       -0.45708180
 C            2.87317268       -1.28710990       -1.25122778
 C            2.79354098        2.06534949       -0.77344328
 C            3.49299059        0.95941580       -1.25121167
 C            2.20290972        2.94471314       -1.68082257
 C            0.53602293        3.50594845        0.06500961
 C            1.09017222        3.75879912       -1.24334309
 C           -1.36266351        2.13873300        0.74438000
 C           -0.85779675        3.13400044       -0.08707353
 C           -2.77578902        0.22316453        1.08883072
 C           -2.22916385        1.17608173        0.22356446
 C           -3.72116882       -2.04394203        1.19742520
 C           -3.06189843       -2.98436132        0.30707020
 C           -3.62953193       -0.74311918        0.56506533
 C           -1.81010964       -2.44712434       -1.70203451
 C           -2.98685031       -2.34740632       -0.97746152
 C           -3.56457752       -1.01874001       -0.84897862
 C           -1.82847312       -1.75460800       -2.89924248
 C            0.60435209       -1.61381840       -2.89597056
 C           -0.59199673       -1.48205414       -3.58429975
 C            2.91430953       -0.84706866       -2.62617315
 C            3.33191908        0.54921694       -2.63356942
 C            1.71353823       -0.95054463       -3.41393370
 C            1.91254295        2.50272505       -3.03859905
 C            2.41876040        1.28725522       -3.48608004
 C            1.52828401        0.31915268       -4.10393510
 C            0.01626128        3.61332186       -2.20859580
 C           -1.14943948        3.09631172       -1.50499243
 C            0.53679312        2.87293735       -3.34402016
 C           -2.44201457        1.08296272       -1.16832066
 C           -3.07363951       -0.04913826       -1.70998457
 C           -2.61665945       -0.53458539       -2.92827208
 C           -1.82444740        2.00319173       -2.03288913
 C           -0.81378608       -0.28865640       -4.38550239
 C            0.24432123        0.70153515       -4.46764389
 C           -0.29878381        1.95847121       -3.96983010
 C           -1.99642868        0.37244255       -3.85828114
 C           -1.59193158        1.66791006       -3.36950449
