   70
C70 / DATE: 7/ 1/2024 / Origin: Program Fullerene / C70 from database
 C            1.57226825       -0.05096514        4.60803477
 C            0.78392071       -1.23796861        4.34086743
 C            1.36515024       -1.92479742        3.19887712
 C            2.66042176       -0.02230356        3.64975103
 C            2.54825661       -1.18603645        2.79511497
 C            2.65115105        1.27721325        3.01213994
 C            0.72610226        1.10121679        4.34528232
 C            1.38378804        1.91351414        3.34735428
 C           -0.60235425       -0.82672737        4.25377575
 C           -0.60591661        0.61583383        4.06271976
 C           -1.44515850       -1.58594738        3.45891436
 C            0.50854751       -2.42504628        2.21989748
 C           -0.84947893       -2.52158014        2.51482181
 C            0.91225826       -2.41872689        0.88168277
 C            2.79681522       -1.01517465        1.44214583
 C            2.12581603       -1.81773785        0.52176264
 C            3.08971556        1.36554313        1.69573173
 C            3.37125045        0.18006491        1.00629885
 C            2.66546777        2.47147809        0.96771480
 C            0.63332947        2.47260906        2.31622436
 C            1.34321837        3.00589650        1.24395507
 C           -1.30948487        1.14179506        2.98207804
 C           -0.69631304        2.06730528        2.11845472
 C           -2.52147224       -0.91480367        2.75272988
 C           -2.45064636        0.46041397        2.55519450
 C           -1.80068447       -2.70802512        1.43591814
 C           -2.89302432       -1.76596484        1.63652089
 C            0.03335583       -2.86972698       -0.10846762
 C           -1.33977547       -2.93000261        0.14682187
 C            0.49523429       -3.02209889       -1.41111174
 C            2.52980865       -1.78687613       -0.81417787
 C            1.77491674       -2.44737829       -1.78031463
 C            3.80253704        0.25237221       -0.31363068
 C            3.47614917       -0.84355448       -1.21126846
 C            2.87709499        2.50695083       -0.46670772
 C            3.61730462        1.49211209       -1.05247588
 C            0.67903643        3.22021070       -0.02810823
 C            1.62732719        2.92613678       -1.08804460
 C           -1.36918715        2.46361862        0.95818288
 C           -0.63820087        2.82213714       -0.17667038
 C           -3.24002508        1.02292146        1.56230140
 C           -2.71941638        2.15992047        0.83179130
 C           -3.50629795       -1.19242877        0.52547810
 C           -3.88935609        0.14704634        0.59710059
 C           -2.24331448       -2.74779819       -0.89533498
 C           -3.33774273       -1.80640716       -0.71749787
 C           -0.41943137       -2.82920916       -2.52469486
 C           -1.76851613       -2.63923920       -2.26271197
 C            1.64086659       -1.87610694       -3.11492780
 C            0.24918702       -2.00041769       -3.51444150
 C            3.41800380       -0.29847224       -2.55515623
 C            3.34640100        1.14781841       -2.43476825
 C            2.34529968       -0.72319831       -3.43574548
 C            1.18033800        2.28990766       -2.24482555
 C            2.08896933        1.56957518       -3.02228954
 C            1.61734023        0.46957203       -3.84608786
 C           -1.10040691        2.47903334       -1.44870446
 C           -0.19150712        2.11753916       -2.44894020
 C           -3.32371185        2.14810818       -0.48753763
 C           -4.08479047        0.91474530       -0.61948444
 C           -2.45994426        2.25876411       -1.64499734
 C           -3.47158527       -1.04301869       -1.95136819
 C           -2.48610061       -1.54395780       -2.89805367
 C           -3.74507787        0.31710690       -1.89624542
 C           -2.88478425        1.25356403       -2.60234713
 C           -0.41105027       -0.90450163       -4.06126545
 C            0.26193675        0.38421327       -4.12784961
 C           -0.63004232        1.36394077       -3.53749321
 C           -1.80438197       -0.65394373       -3.72087547
 C           -1.95940442        0.77994326       -3.52101748
