   70
C70 / DATE: 7/ 1/2024 / Origin: Program Fullerene / C70 from database
 C            1.24090336        0.07922943        5.57115685
 C            0.35426383       -1.05558234        5.74458945
 C            1.03023623       -2.21671430        5.20005716
 C            2.36991134       -0.34756036        4.75551564
 C            2.23964137       -1.76323966        4.52466445
 C            2.43396618        0.52823119        3.60183128
 C            0.51879796        1.08008634        4.81083811
 C            1.40140602        1.53473968        3.75852006
 C           -0.83812485       -0.81757402        4.94181584
 C           -0.75839724        0.52413404        4.40544832
 C            0.16254128       -2.78595872        4.18802702
 C           -0.98180004       -1.91389327        4.00566326
 C            2.17859426       -2.23035728        3.15197668
 C            0.98207089       -3.04067596        3.02785487
 C            2.63655232        0.00570867        2.31870773
 C            2.49665950       -1.37314258        2.08609689
 C            2.43066766        0.87758259        1.24847525
 C            0.82239083        1.99892947        2.59204004
 C            1.61621331        1.99662724        1.45705586
 C           -1.15097570        0.73886882        3.08821622
 C           -0.53896936        1.77902211        2.39478338
 C           -1.36648766       -1.63038765        2.69540999
 C           -1.68609617       -0.31792745        2.34231800
 C            0.37012119       -3.01675914        1.79405853
 C           -0.91683814       -2.47838599        1.68801802
 C            2.14174967       -1.80621672        0.79551603
 C            1.20538036       -2.84053282        0.70930744
 C            2.59245461        0.40102735       -0.04933806
 C            2.31351803       -0.94269141       -0.30052412
 C            2.53185111        1.32473609       -1.08549448
 C            1.12296689        2.68130251        0.35330477
 C            1.82021581        2.56310296       -0.84162280
 C           -1.04925114        2.11562091        1.15092602
 C           -0.25445311        2.90002718        0.32099450
 C           -2.05258283       -0.05806942        1.01596040
 C           -1.97103342        1.25477617        0.55549065
 C           -1.42822643       -2.30970599        0.40166986
 C           -2.05517462       -1.09817018        0.07846876
 C            0.65390178       -3.15120997       -0.51169690
 C           -0.78492792       -3.01262353       -0.60922341
 C            1.88500702       -1.34781281       -1.57798369
 C            1.20815512       -2.55486193       -1.69921598
 C            2.20149885        0.88578114       -2.42567288
 C            1.83841982       -0.43522274       -2.64166097
 C            1.19468928        2.98393213       -2.08185537
 C            1.44549524        1.94927920       -3.07485100
 C           -0.84720057        3.41681378       -0.82010600
 C           -0.05246396        3.58436595       -2.02420115
 C           -2.42167048        1.56058223       -0.72704110
 C           -2.10381436        2.82535363       -1.22629580
 C           -2.34634710       -0.80046231       -1.26504156
 C           -2.69599321        0.51337958       -1.61416032
 C           -1.08680896       -2.71100343       -1.98454036
 C            0.17786823       -2.69263193       -2.70524705
 C           -2.02349092       -1.73038256       -2.26847609
 C            1.12558365       -0.74355763       -3.80578262
 C            0.26025156       -1.91336005       -3.84182287
 C            0.46137892        1.61814476       -4.00661988
 C            0.45094629        0.32604407       -4.53248018
 C           -0.95011400        3.44477686       -3.15585156
 C           -2.27098258        3.12250576       -2.63174081
 C           -0.64447245        2.45957656       -4.17596236
 C           -3.11148852        0.79923220       -2.91717447
 C           -2.84616066        2.10824322       -3.48385323
 C           -1.92621339        1.91213277       -4.59153861
 C           -2.16005870       -1.38452542       -3.60906796
 C           -0.98941503       -1.51057344       -4.46206193
 C           -0.77203581       -0.22646341       -5.09361278
 C           -2.82772994       -0.15444184       -3.96613565
 C           -2.00647052        0.51878170       -4.96682332
