   70
C70 / DATE: 7/ 1/2024 / Origin: Program Fullerene / C70 from database
 C            1.45602943       -0.15006696        5.09959960
 C            0.59781134       -1.32148419        5.10820319
 C            1.19719604       -2.32061663        4.24069418
 C            2.59002708       -0.43687848        4.23955196
 C            2.47984710       -1.81297838        3.78940362
 C            2.67091675        0.61629906        3.23931257
 C            0.71423395        0.94067128        4.49120752
 C            1.51882456        1.48489085        3.41569427
 C           -0.67277573       -0.94258661        4.51845891
 C           -0.61252436        0.46230581        4.16202037
 C            0.20878753       -2.70172369        3.24215914
 C           -0.97630356       -1.89110204        3.46315445
 C            0.62519743       -2.92867809        1.93013044
 C            2.87548310       -2.10567317        2.49413855
 C            1.98686838       -2.88437601        1.64439853
 C            3.05592555        0.28445627        1.94202632
 C            3.39895846       -1.03479142        1.66056927
 C            2.63968027        1.09901537        0.88893240
 C            0.87261738        1.94466533        2.27548032
 C            1.59958288        2.01139179        1.09852553
 C           -1.15498291        0.83731684        2.93884502
 C           -0.51202352        1.81726729        2.17845431
 C           -1.65780971       -1.42743121        2.34792042
 C           -1.97143741       -0.07284464        2.27108137
 C           -0.28749728       -2.74323053        0.88684318
 C           -1.51354932       -2.12257095        1.15545084
 C            0.13567671       -2.89516165       -0.43894369
 C            2.41323049       -2.64978409        0.27852234
 C            3.31334509       -1.50343930        0.29007013
 C            1.49056115       -2.75145484       -0.75546442
 C            3.00324027        0.76502831       -0.41860779
 C            3.21273350       -0.57933984       -0.74382556
 C            2.73925923        1.68717722       -1.42891387
 C            1.02402187        2.64651615        0.00578525
 C            1.78601547        2.74388014       -1.14991824
 C           -1.13868680        2.22770050        1.00032866
 C           -0.37388307        2.74382427       -0.05471287
 C           -2.63479607        0.37477926        1.13589120
 C           -2.38220158        1.67757265        0.71439317
 C           -2.35456351       -1.77258827        0.10259518
 C           -3.05172438       -0.56646606        0.19333652
 C           -0.81654209       -2.85331488       -1.45457103
 C           -2.14066082       -2.35027188       -1.14297918
 C           -0.45260693       -2.34409687       -2.76842803
 C            1.85311580       -2.19029792       -1.97753712
 C            2.76735469       -1.06119182       -1.97182122
 C            0.85222908       -1.95289932       -3.00112888
 C            2.48692623        1.22193946       -2.78334224
 C            2.34760310       -0.13719122       -3.00712564
 C            1.11000479       -0.64712025       -3.58550258
 C            1.15558985        3.11684116       -2.39360422
 C            1.53483395        2.13014538       -3.39370984
 C           -1.01736818        3.11853808       -1.24724217
 C           -0.28477703        3.23964951       -2.42855436
 C           -3.10663731        2.18662198       -0.35025794
 C           -2.40018007        2.96062343       -1.35532596
 C           -3.83043684       -0.13299215       -0.87662672
 C           -4.02710018        1.29654449       -1.03407396
 C           -2.66141979       -1.70490389       -2.33589634
 C           -1.53796074       -1.50141320       -3.23769252
 C           -3.60141080       -0.69604606       -2.19874679
 C            0.05087141        0.22455392       -3.84560901
 C            0.30756298        1.59063958       -3.95264249
 C           -0.73823419        2.53623354       -3.61952989
 C           -1.27125080       -0.22299613       -3.73507966
 C           -2.95780490        2.60816261       -2.65188582
 C           -3.98704484        1.60529662       -2.45017950
 C           -3.57016861        0.40230774       -3.14765773
 C           -2.05464223        2.11466392       -3.67303605
 C           -2.32115732        0.69248282       -3.83300536
