   70
C70 / DATE: 7/ 1/2024 / Origin: Program Fullerene / C70 from database
 C            1.49536567       -0.00838161        5.23596779
 C            0.68376295       -1.18206578        4.96977543
 C            1.51222142       -2.11260387        4.23727422
 C            2.65749709       -0.07627812        4.36390228
 C            2.70886673       -1.40391035        3.80140221
 C            2.59219912        1.04653456        3.45536398
 C            0.71873063        1.15622615        4.85023543
 C            1.47384731        1.88868455        3.85261864
 C           -0.56103190       -0.73761894        4.36183485
 C           -0.61255828        0.71009424        4.49991900
 C           -1.00191955       -1.33466853        3.17421051
 C            0.94906740       -2.74265221        3.06552264
 C           -0.38084539       -2.50887188        2.72329512
 C            2.79651631       -1.54705205        2.35607856
 C            1.94108125       -2.65833586        2.00887076
 C            2.82880006        0.86506216        2.09437170
 C            2.77890260       -0.42281709        1.53320023
 C            2.55583912        1.95540642        1.28504931
 C            0.78386958        2.57342584        2.85351880
 C            1.47237821        2.84577184        1.67574274
 C           -1.30334330        1.43862589        3.54849157
 C           -0.61099163        2.49729272        2.81949318
 C           -1.84571258       -0.61132182        2.31510235
 C           -2.11149112        0.72528861        2.58079627
 C           -2.21155582       -1.13695574        1.07289219
 C           -0.79407815       -3.06440678        1.52141191
 C           -1.88202564       -2.44906858        0.78886940
 C            1.47966116       -2.76820277        0.70586667
 C            0.23948345       -3.36643305        0.54712557
 C            2.40725559       -0.59043803        0.18945448
 C            1.87129079       -1.81528665       -0.24156168
 C            2.48908133        1.78385093       -0.14769986
 C            2.43725697        0.50247890       -0.68177253
 C            0.74839187        3.20900162        0.46904407
 C            1.56575564        2.78083609       -0.65156180
 C           -1.32253001        2.67598756        1.55946427
 C           -2.32057212        1.62500414        1.47002012
 C           -0.63084558        3.03171462        0.40248107
 C           -2.58558582       -0.28300933        0.02428968
 C           -2.58788133        1.10248180        0.21825758
 C           -2.73897844       -0.78410953       -1.28172091
 C           -1.73499081       -2.85539525       -0.59383280
 C           -0.37374438       -3.33839649       -0.75319753
 C           -2.25208020       -2.05714838       -1.60796457
 C            1.38722200       -1.93263430       -1.55263158
 C            0.35380008       -2.84702501       -1.82167697
 C            1.97347987        0.36156993       -1.99069737
 C            1.66236397       -0.91128988       -2.46924748
 C            0.94547371        2.52246394       -1.85765851
 C            1.45796901        1.49279135       -2.63586867
 C           -1.20726574        2.74002246       -0.83995636
 C           -2.34136642        1.92083111       -0.87093939
 C           -0.40507720        2.82874041       -1.98148572
 C           -3.07309057        0.10837740       -2.30721355
 C           -2.86903178        1.53002981       -2.08934466
 C           -2.69849743       -0.18266021       -3.68310680
 C           -1.74443825       -2.28820720       -2.88879219
 C           -0.36034330       -2.72173832       -3.00183785
 C           -2.00458598       -1.35143088       -3.96354408
 C            1.28072704       -1.06480678       -3.80196790
 C            0.24195116       -2.02114186       -4.10837462
 C           -0.81907275       -1.32161090       -4.81191255
 C            1.02729497        1.40745255       -3.95185172
 C            1.02020532        0.11634594       -4.60457701
 C           -0.27560680       -0.05062484       -5.24928134
 C           -0.99419843        2.68345458       -3.23455967
 C           -2.31979274        2.10253997       -3.30118615
 C           -2.31233553        1.06834668       -4.32041956
 C           -0.20312466        2.09453672       -4.30595808
 C           -1.04701974        1.15732735       -5.02781313
