   70
C70 / DATE: 7/ 1/2024 / Origin: Program Fullerene / C70 from database
 C            1.16252829        0.05825539        4.33101890
 C            2.47898524       -0.31200079        3.87653799
 C            2.44776326       -1.73313433        3.55792874
 C            0.34714095       -1.14558173        4.30085880
 C            1.05026177       -2.11513002        3.49364404
 C           -0.96730577       -0.74495999        3.87456450
 C            0.43293754        1.07023901        3.59209101
 C           -0.95579494        0.69963559        3.71819838
 C            0.89016912        1.48398000        2.34510339
 C            3.01512163        0.35514868        2.71321657
 C            2.19065191        1.16456434        1.92276185
 C            3.27626551       -1.92722458        2.38360137
 C            3.85460262       -0.62985532        2.06247813
 C            2.78835260       -2.72104441        1.35277516
 C            0.50533511       -2.50573071        2.26720239
 C            1.35993730       -3.01310354        1.29028274
 C           -1.60024343       -1.47646587        2.88054914
 C           -0.79498244       -2.10162903        1.91448029
 C           -2.83466749       -0.97580282        2.49818492
 C           -1.88121198        1.22278706        2.82906972
 C           -3.02512954        0.45409041        2.67307614
 C           -0.03976013        1.96034758        1.41891507
 C           -1.41765799        1.94032470        1.71426383
 C            0.40643494        2.36518624        0.16249973
 C            2.57101728        1.40158710        0.59736724
 C            1.63761268        1.91355958       -0.31250691
 C            4.25194651       -0.37305560        0.76355154
 C            3.76365148        0.84095482        0.13884936
 C            3.25488735       -2.47909937       -0.00148869
 C            4.12636130       -1.42182856       -0.23549493
 C            0.95698435       -2.96899345       -0.10116972
 C            2.13406293       -2.70339887       -0.90589560
 C           -1.16407052       -2.04814085        0.55537932
 C           -0.23739115       -2.35275656       -0.43962000
 C           -3.34511318       -1.28238114        1.18392801
 C           -2.43153575       -1.59615241        0.18286950
 C           -4.02231252        0.87783344        1.72646572
 C           -4.37565158       -0.29234230        0.93854343
 C           -2.34319096        2.37177047        0.74692789
 C           -3.66648884        1.92449842        0.79702086
 C           -0.46626319        3.00473144       -0.70364026
 C           -1.88803488        2.97456768       -0.42420803
 C           -0.28138607        2.83834343       -2.13253648
 C            1.88056729        1.87947192       -1.69715015
 C            0.83218096        2.13620655       -2.58374081
 C            3.97463054        0.67164912       -1.27832267
 C            4.09377087       -0.76076474       -1.52434509
 C            2.97679322        1.17863349       -2.19197582
 C            1.99610749       -1.93016511       -2.05468747
 C            3.04703496       -1.10687060       -2.46539089
 C            2.73453843        0.12781292       -3.15994434
 C           -0.39825665       -1.82294018       -1.71978487
 C            0.71803718       -1.69007856       -2.56453194
 C           -2.66584120       -1.19919384       -1.14348353
 C           -1.65440232       -1.33481354       -2.10063567
 C           -4.59071952        0.15814980       -0.41331585
 C           -4.34958919        1.59457085       -0.43893979
 C           -3.77765749       -0.41070994       -1.46270478
 C           -2.58724774        2.73565253       -1.68261616
 C           -1.58953644        2.60039682       -2.72974704
 C           -3.69485228        1.89671352       -1.69717803
 C           -3.62393292        0.64665683       -2.44086331
 C           -1.81656491       -0.69910506       -3.33211174
 C           -1.73987921        1.59567476       -3.67841230
 C           -2.64299659        0.49026321       -3.40230642
 C            0.74715361        1.38327949       -3.75711606
 C            1.55575324        0.18474912       -3.87618640
 C            0.62680154       -0.91609488       -3.71794791
 C           -0.55472738        1.01858128       -4.27973211
 C           -0.66198484       -0.43031889       -4.15447388
