   70
C70 / DATE: 7/ 1/2024 / Origin: Program Fullerene / C70 from database
 C            1.24533636       -0.10980538        4.61457306
 C            2.56132379       -0.29811600        4.03607955
 C            2.55110977       -1.55918661        3.31593101
 C            0.43217985       -1.26174032        4.25387633
 C            1.20171288       -2.09218434        3.35832568
 C           -0.84870581       -0.77855250        3.79813720
 C            0.49407127        1.08973938        4.28248728
 C           -0.82956312        0.67462806        3.85372061
 C            1.12118130        2.13415536        3.61696901
 C            3.08518925        0.71978081        3.14473287
 C            2.48406386        1.97119679        3.11741874
 C            3.15557761       -1.34018513        2.01356873
 C            3.44801518        0.07659685        1.88671815
 C            2.61243146       -1.99273848        0.91846593
 C            0.63341207       -2.50882362        2.15983281
 C            1.49736393       -2.80960303        1.11428668
 C           -1.45985985       -1.38082461        2.70377954
 C           -0.70665672       -2.21410918        1.85984837
 C           -2.56229336       -0.71676268        2.18322834
 C           -1.50119634        1.37584177        2.85356205
 C           -2.58995658        0.73620906        2.27631643
 C            0.37108658        2.87865633        2.62050086
 C           -0.81877967        2.35236894        2.11742159
 C            2.60152880        2.76088054        1.90948343
 C            1.33373090        3.44025024        1.69974085
 C            3.18935344        0.72007661        0.67170386
 C            2.95198247        2.09130203        0.66774806
 C            2.81292386       -1.43300953       -0.33833172
 C            2.84707201       -0.04176177       -0.45414904
 C            2.51247197       -2.21014048       -1.44694416
 C            0.98472318       -3.49754007        0.02777225
 C            1.67834930       -3.37896034       -1.23964418
 C           -1.20596502       -2.56457618        0.59367067
 C           -0.43945770       -3.38181070       -0.23267866
 C           -3.06975505       -1.08002873        0.87814919
 C           -2.28388375       -1.86499690        0.04548613
 C           -3.14859853        1.24288028        1.04199693
 C           -3.71911524        0.10062844        0.34247716
 C           -1.19898663        2.63191847        0.79262076
 C           -2.45010620        2.20946278        0.32508545
 C            1.04059861        3.38065013        0.28755060
 C            2.11377905        2.65744975       -0.36686335
 C           -0.25447892        3.11082811       -0.12852222
 C            2.26896030        0.57938487       -1.57287636
 C            1.77973261        1.88467522       -1.46833922
 C            2.07374641       -1.56683940       -2.66993403
 C            1.92850382       -0.17973037       -2.70098063
 C            0.68436590       -3.41423093       -2.29182857
 C           -0.62515038       -3.31414526       -1.67188533
 C            1.05449276       -2.41909312       -3.27692167
 C           -2.42605158       -1.75154659       -1.34436751
 C           -1.54175021       -2.41204071       -2.20046148
 C           -3.91695658        0.18715829       -1.02318460
 C           -3.34068063       -0.84017416       -1.87599123
 C           -2.78296109        2.40966247       -1.01514086
 C           -3.67960936        1.46622153       -1.66335075
 C           -0.43059180        2.82067190       -1.47618350
 C            0.62767085        2.22556743       -2.17019764
 C           -1.72725119        2.72716270       -1.95771880
 C            1.12635678        0.39161836       -3.69157207
 C            0.41245283        1.62192547       -3.39959809
 C            0.03667602       -1.82373842       -4.00299563
 C           -1.32464327       -1.91604069       -3.48946404
 C            0.23268257       -0.46228102       -4.45320950
 C           -3.07569784       -0.23341555       -3.16926221
 C           -3.17862177        1.20756583       -3.00141519
 C           -1.99622109        2.02785838       -3.20282804
 C           -0.93623966        1.50595000       -3.92942305
 C           -2.04725487       -0.74165570       -3.94926067
 C           -1.06916982        0.17946531       -4.50774218
