   70
C70 / DATE: 7/ 1/2024 / Origin: Program Fullerene / C70 from database
 C            1.21807959        0.02824085        4.37323467
 C            2.51203581       -0.18609064        3.76662389
 C            2.57148741       -1.57082670        3.34074075
 C            0.40811173       -1.15671350        4.13651655
 C            1.23472158       -2.13138390        3.45220703
 C           -0.82603434       -0.73264541        3.50454308
 C            0.44956749        1.17307164        3.93811929
 C           -0.87648612        0.71498485        3.56242919
 C            1.04580794        2.13546841        3.13411524
 C            2.88693729        0.64116245        2.63382592
 C            2.12847248        1.76305721        2.31902970
 C            3.22390787       -1.60804582        2.04451602
 C            3.29027952       -0.23986626        1.55041224
 C            2.84823463       -2.60742937        1.16452268
 C            0.71511696       -2.81019165        2.35379806
 C            1.62140772       -3.34006017        1.43715808
 C           -1.23020668       -1.36621727        2.34141300
 C           -0.59415911       -2.54229729        1.93734517
 C           -2.05312453       -0.68203418        1.44837906
 C           -1.54763629        1.41970247        2.56377797
 C           -2.14644536        0.71642884        1.51158345
 C            0.19651736        3.13428100        2.67618011
 C           -1.17233192        2.74896749        2.35795144
 C            0.66320308        4.01427717        1.62590733
 C            2.19047433        2.23991765        1.01024361
 C            1.70264605        3.51404175        0.75444734
 C            2.87153849        0.05218452        0.24808876
 C            2.38479197        1.33074700       -0.04002186
 C            2.82929718       -2.30954123       -0.25051495
 C            2.67785401       -0.98715512       -0.66871820
 C            1.14311959       -3.86650807        0.16943543
 C            2.02202608       -3.34529968       -0.86879504
 C           -1.12235190       -3.24979280        0.86323195
 C           -0.22488583       -3.92918469       -0.05724413
 C           -2.65715924       -1.38393675        0.40182476
 C           -2.19756770       -2.65870035        0.08550969
 C           -3.38692781       -0.69399145       -0.55953141
 C           -2.66483986        1.42243532        0.42559885
 C           -3.45078884        0.75417835       -0.50080962
 C           -1.54690503        3.42154804        1.12490451
 C           -0.47898982        4.35000790        0.79677034
 C           -2.15249868        2.68422169        0.11124025
 C            1.34666242        3.88095043       -0.59821333
 C           -0.01143406        4.40683430       -0.56982507
 C            1.86954590        1.59537457       -1.31428289
 C            1.40311668        2.86534888       -1.62984550
 C            2.05496800       -0.73242043       -1.89358910
 C            1.52122621        0.53416947       -2.14750228
 C            1.51817570       -3.11067292       -2.13719506
 C            1.74291726       -1.80524241       -2.72716428
 C           -0.73796874       -3.74681444       -1.40574574
 C           -1.98913663       -3.00690501       -1.31155666
 C            0.14551446       -3.48137077       -2.44333976
 C           -3.25507206       -1.08343062       -1.95684201
 C           -2.35099262       -2.08783466       -2.29618492
 C           -3.48387174        1.25206740       -1.85836623
 C           -3.30956138        0.12470528       -2.75909429
 C           -1.94316005        3.04266476       -1.23047404
 C           -0.76510234        3.69499651       -1.57831390
 C            0.18530731        2.97786217       -2.40681457
 C           -2.52793093        2.27361297       -2.22893026
 C            0.53657586        0.72180037       -3.13314718
 C           -2.20159282        0.42237805       -3.64657614
 C           -0.27101559        1.85844919       -3.09066251
 C           -1.65130740        1.70854635       -3.24388225
 C            0.74767772       -1.63826566       -3.76186685
 C           -0.28939113       -2.63734425       -3.53870880
 C           -1.55566824       -1.93257216       -3.43499565
 C            0.09601372       -0.35482695       -3.89370777
 C           -1.33079256       -0.60307274       -3.98316311
