   70
C70 / DATE: 7/ 1/2024 / Origin: Program Fullerene / C70 from database
 C            1.42286997       -0.18877635        5.14887828
 C            0.56758721       -1.35937338        5.17146100
 C            1.13560108       -2.34706905        4.26743139
 C            2.53210614       -0.46692135        4.25261063
 C            2.38333423       -1.82000167        3.74964800
 C            2.60872947        0.62321753        3.29624622
 C            0.66072622        0.90637261        4.57182767
 C            1.45859820        1.48397169        3.51617905
 C           -0.72278695       -0.97029108        4.63261020
 C           -0.65792441        0.41957633        4.22559006
 C            0.09850016       -2.73599173        3.32509076
 C           -1.08047899       -1.94212238        3.62530815
 C            0.43083394       -2.94406518        1.98160896
 C            2.69663129       -2.06288772        2.42097765
 C            1.76327574       -2.81411495        1.59264747
 C            2.97388569        0.34896606        1.97866847
 C            3.20351341       -0.97328085        1.59851053
 C            2.61034836        1.26380881        0.99116968
 C            0.81590463        1.97871943        2.39339626
 C            1.59356228        2.18198456        1.26786313
 C           -1.18701745        0.76032595        2.98047735
 C           -0.54531565        1.72481249        2.20033719
 C           -1.83220609       -1.51813230        2.54803054
 C           -2.03105330       -0.14779094        2.34483783
 C           -0.58043071       -2.82520392        1.01538320
 C           -1.81752045       -2.32933983        1.42960342
 C           -0.24795522       -2.78312195       -0.34828759
 C            2.07277670       -2.48703967        0.21548391
 C            2.98653126       -1.35813237        0.21129384
 C            1.06731803       -2.50577036       -0.73251859
 C            2.89348279        0.96349110       -0.34069029
 C            2.80875573       -0.36545614       -0.75010107
 C            2.70136449        1.96631296       -1.28078447
 C            1.03588482        2.89197190        0.21713829
 C            1.82756109        3.06011475       -0.91193305
 C           -1.10143475        2.07080559        0.96469677
 C           -0.35816865        2.87894288        0.10071364
 C           -2.68156337        0.24131814        1.17234473
 C           -2.20269445        1.35677427        0.46576036
 C           -2.80265377       -2.08974242        0.49419003
 C           -3.36997936       -0.75665468        0.48570566
 C           -1.26885669       -2.69462902       -1.30711972
 C           -2.57396943       -2.46402361       -0.88249169
 C           -0.93757961       -2.45931378       -2.64586756
 C            1.29275585       -1.83127964       -1.92365923
 C            2.08658006       -0.67497816       -1.90990661
 C            0.42286586       -2.07819059       -2.97089351
 C            2.36165008        1.60006028       -2.64199001
 C            1.94856134        0.29917122       -2.90841152
 C            1.25590469        3.60609803       -2.12343405
 C            1.61529757        2.71206135       -3.21268828
 C           -0.97498233        3.37795198       -1.03982171
 C           -0.17253640        3.81759248       -2.16845679
 C           -2.70888688        1.65773527       -0.81381145
 C           -2.12313413        2.67148959       -1.56691789
 C           -3.86019529       -0.50569662       -0.84768051
 C           -3.45097524       -1.62625108       -1.68144443
 C           -3.45264354        0.70872672       -1.50931158
 C           -1.82752002       -1.66963124       -3.49152799
 C           -2.95521689       -1.09310195       -2.93271866
 C           -3.05373239        0.36009615       -2.86365469
 C            0.38504445       -1.17107903       -4.09477872
 C            1.10171922        0.08107114       -3.99342100
 C           -1.00888601       -0.86418472       -4.37368325
 C            0.41303522        2.43346537       -3.97817243
 C           -0.68133415        3.16040582       -3.36082134
 C           -1.88249930        2.43617566       -2.98557344
 C           -2.11235840        1.16391957       -3.50578077
 C            0.18794537        1.13491071       -4.41121553
 C           -1.15655241        0.58122133       -4.34415088
