   70
C70 / DATE: 7/ 1/2024 / Origin: Program Fullerene / C70 from database
 C            1.70594539       -0.17367955        5.02673270
 C            0.84106042       -1.33096684        5.16304608
 C            1.32020664       -2.34161750        4.24336471
 C            2.64161769       -0.43440193        3.94386145
 C            2.38924738       -1.76393042        3.44104561
 C            2.55728339        0.66741993        3.01423080
 C            0.87880922        0.94369474        4.61649328
 C            1.53964537        1.58714139        3.49610749
 C           -0.49222892       -0.95280930        4.72124783
 C           -0.47187635        0.45934038        4.40243005
 C            0.16305833       -2.86897175        3.54564994
 C           -0.89977667       -1.88383755        3.68465622
 C            0.38036852       -3.40401242        2.29107026
 C            2.35389577       -1.97745662        2.06425996
 C            1.63369106       -3.08027632        1.62771913
 C            2.59783984        0.40964076        1.64865264
 C            2.56105239       -0.90829019        1.17066779
 C            2.19160698        1.42847840        0.80192348
 C            0.74069695        2.20662574        2.54175261
 C            1.27206901        2.37454841        1.26742253
 C           -1.11985521        0.89420686        3.25458156
 C           -0.63972634        2.05015950        2.64764218
 C           -1.51634098       -1.38246739        2.53509217
 C           -1.82642020       -0.02074605        2.46394297
 C           -0.64827612       -3.23823247        1.28464118
 C           -1.49323437       -2.14040211        1.35957594
 C            1.41352800       -3.25401659        0.21651041
 C           -0.00308425       -3.52329517        0.02671831
 C            2.41744675       -1.12357300       -0.21753058
 C            2.02814176       -2.39120865       -0.67746417
 C            2.37943912        1.27600298       -0.56028705
 C            2.37755913       -0.01897114       -1.09449363
 C            2.10516431        2.37410745       -1.36333110
 C            0.55217227        3.13706521        0.34789636
 C            1.05590049        3.27975500       -0.93965404
 C           -1.44172760        2.63961666        1.68421808
 C           -0.81105259        3.31785707        0.56331963
 C           -2.49315366        0.46427114        1.33737088
 C           -2.52385194        1.84397984        1.14170072
 C           -1.97883727       -1.58225324        0.17530220
 C           -2.68186056       -0.38056028        0.24154903
 C           -0.57376018       -3.06646458       -1.14866130
 C           -1.60208877       -2.11383618       -1.07353524
 C            1.63656648       -2.54220619       -1.99962648
 C            0.28623512       -3.02588247       -2.23606800
 C            2.19869756       -0.21630257       -2.47538358
 C            1.88096682       -1.48145263       -2.94604640
 C            2.00100241        2.20857280       -2.79219918
 C            1.96760408        0.86776568       -3.32255953
 C            0.13439299        3.42691684       -2.05585567
 C            0.79693818        2.89708621       -3.23446763
 C           -1.73210836        3.24503413       -0.56172341
 C           -2.83833662        2.37950675       -0.16844049
 C           -1.22269119        3.18414945       -1.85789534
 C           -3.32068146        0.10221186       -0.89586309
 C           -3.40728293        1.53905943       -1.10860202
 C           -2.09004411       -1.52838495       -2.25384001
 C           -3.04840154       -0.52287968       -2.17593787
 C           -0.17926309       -2.46566099       -3.47799197
 C            0.87928621       -1.61331223       -3.99341744
 C           -1.39718706       -1.69048893       -3.45678178
 C            0.87607056        0.80662054       -4.28551615
 C            0.06696031        2.00242734       -4.11239638
 C            0.25784072       -0.41298572       -4.52293341
 C           -1.17939491       -0.54154798       -4.32193061
 C           -1.97545825        2.58001943       -2.86723257
 C           -3.14764010        1.80043771       -2.50943670
 C           -3.05811363        0.52148773       -3.18914389
 C           -1.31060875        1.88883974       -3.96396054
 C           -1.95564363        0.59333447       -4.13218893
