   70
C70 / DATE: 7/ 1/2024 / Origin: Program Fullerene / C70 from database
 C            1.06720412       -0.13488090        4.84884850
 C            2.32529849       -0.35560782        4.15990644
 C            2.23199371       -1.63470544        3.47832164
 C            0.21448281       -1.28512809        4.58738986
 C            0.85792006       -2.08363701        3.56308627
 C           -1.12230648       -0.79796416        4.34374521
 C            0.29664001        1.06108779        4.55385547
 C           -1.08531273        0.65711810        4.38567104
 C            0.82048723        2.03020502        3.70599710
 C            2.78552652        0.62521264        3.19235568
 C            2.12440439        1.83871442        3.07939359
 C            2.81056964       -1.47638717        2.16048678
 C            3.17214388       -0.08243640        1.98135465
 C            2.21446052       -2.11747992        1.09045696
 C            0.18967082       -2.37557143        2.37318213
 C            0.95136124       -2.69891035        1.24989209
 C           -1.78498236       -1.17731057        3.11223990
 C           -1.14530024       -1.99806710        2.18674453
 C           -1.83306310        1.14666421        3.23855521
 C           -2.46864083       -0.00217834        2.62009305
 C           -0.04625330        2.68098631        2.73183311
 C           -1.28525099        2.12950664        2.41325762
 C            2.08654744        2.49480830        1.78736810
 C            0.80462170        3.16975945        1.66458057
 C            2.95856115        0.50790979        0.73006768
 C            2.61822923        1.86454790        0.66401479
 C            2.57984295       -1.69601336       -0.17719826
 C            2.75641689       -0.32428244       -0.38617437
 C            2.22099625       -2.51747557       -1.23157191
 C            0.30260888       -3.17475435        0.11007092
 C            1.09624701       -3.40343885       -1.01375254
 C           -1.67336120       -2.05653368        0.89722385
 C           -1.05624664       -2.87384719       -0.04578847
 C           -2.75334592        0.06841263        1.26812786
 C           -2.56696568       -1.06204661        0.47281732
 C           -1.76410355        2.24343153        1.10493021
 C           -2.70957989        1.31283800        0.66085617
 C            0.27388482        3.33742247        0.39341941
 C           -1.07127850        3.03416429        0.17654641
 C            2.33483129        2.43495045       -0.56973806
 C            1.16108491        3.28689288       -0.67886912
 C            2.46583500        0.23598205       -1.63746340
 C            2.38883594        1.61770564       -1.76346691
 C            2.07594955       -1.95405016       -2.55486801
 C            2.03584729       -0.57355307       -2.69422992
 C            0.48765997       -3.66779777       -2.30019156
 C            1.10621976       -2.77306368       -3.26701002
 C           -1.69200220       -3.05898015       -1.27035676
 C           -0.94430472       -3.53434515       -2.41936537
 C           -2.97315022       -1.00982965       -0.86685879
 C           -2.60946849       -2.03635237       -1.73446476
 C           -3.24716348        1.42261578       -0.61005746
 C           -3.35701630        0.21682627       -1.41465467
 C           -1.60490560        3.22189099       -1.09698895
 C           -2.80505534        2.50080857       -1.46720195
 C            0.65544639        3.18089103       -2.03588837
 C            1.47419491        2.19961461       -2.73179250
 C           -0.71594662        3.21639604       -2.24805810
 C            1.28466946       -0.02306314       -3.73383610
 C            0.90238577        1.37731150       -3.69066753
 C            0.04735411       -2.12086992       -4.01630861
 C           -1.21793765       -2.63834312       -3.53148629
 C           -2.24130973       -1.70232374       -3.10309033
 C            0.15605566       -0.76281116       -4.27806399
 C           -2.93961763        0.54766866       -2.76831680
 C           -2.61902739        1.96357317       -2.80486197
 C           -1.31223466        2.37459298       -3.27486177
 C           -0.52789571        1.45256283       -3.95559299
 C           -2.14714091       -0.36092892       -3.46222473
 C           -1.01632172        0.09189583       -4.15136877
