   70
C70 / DATE: 7/ 1/2024 / Origin: Program Fullerene / C70 from database
 C            1.51276451       -0.06237352        4.69886010
 C            0.74640781       -1.25362638        4.39019043
 C            1.38425483       -1.93003319        3.27282783
 C            2.66600543       -0.04445527        3.82200573
 C            2.59767543       -1.20320518        2.94612731
 C            2.71657846        1.26470841        3.20502646
 C            0.68946158        1.08490719        4.35378062
 C            1.38314841        1.83439963        3.32634411
 C           -0.63663206       -0.85020314        4.24106493
 C           -0.64025435        0.59485934        4.06435628
 C           -1.43901615       -1.60607042        3.39890610
 C            0.58231540       -2.40674571        2.24208962
 C           -0.79458971       -2.50118486        2.44807805
 C            1.07055321       -2.40742659        0.93647794
 C            2.95267444       -1.03443472        1.61044869
 C            2.25236214       -1.72463797        0.61870520
 C            3.34593510        1.35920536        1.97879194
 C            3.63583578        0.12641129        1.25960490
 C            2.78695508        2.25882137        0.99359428
 C            0.69233594        2.19848951        2.16834879
 C            1.41663253        2.51494031        1.01559633
 C           -1.33597549        1.12158448        2.98257309
 C           -0.68522443        1.97639438        2.07737859
 C           -2.50975390       -0.93780385        2.68024094
 C           -2.48342762        0.44943888        2.56871613
 C           -1.68086845       -2.63444654        1.30173538
 C           -2.79898570       -1.72909816        1.49425539
 C            0.25225852       -2.87569741       -0.08851895
 C           -1.13313402       -2.75625111        0.03562226
 C            0.81066025       -3.09359191       -1.33925840
 C            2.61128016       -1.55432785       -0.72433981
 C            2.01972472       -2.37036139       -1.68868882
 C            3.75805316        0.48111499       -0.14234610
 C            3.41472798        1.89381008       -0.25665185
 C            3.30797077       -0.40493813       -1.11709092
 C            2.84100571        2.34190880       -1.43136574
 C            0.74432755        2.74802396       -0.19001966
 C            1.47182834        2.83224352       -1.38320717
 C           -1.36590327        2.39116887        0.93298668
 C           -0.64694607        2.61309440       -0.24790783
 C           -3.27815855        1.03902005        1.59896854
 C           -2.73948849        2.17485650        0.87951070
 C           -3.35607529       -1.08728682        0.39199066
 C           -3.89561859        0.18185350        0.60426372
 C           -1.89913866       -2.37272674       -1.06511020
 C           -2.95871727       -1.47207728       -0.89759151
 C           -0.05818858       -3.10932004       -2.49964506
 C           -1.42528327       -2.64563574       -2.34608015
 C            1.87131965       -1.88750062       -3.05316436
 C            0.56778749       -2.30571746       -3.53543138
 C            3.16932003        0.07873927       -2.41708889
 C            2.96562896        1.50328954       -2.60801577
 C            2.30742864       -0.60886785       -3.35854651
 C            0.82805489        2.45918576       -2.63118543
 C            1.76592261        1.67430553       -3.40553083
 C            1.34778577        0.36530146       -3.86570684
 C           -1.26281322        2.44664303       -1.49623703
 C           -0.49614114        2.05884341       -2.58879464
 C           -3.42994739        2.23918176       -0.39349574
 C           -4.23327999        1.03085998       -0.51890131
 C           -2.64337447        2.36406170       -1.59817355
 C           -3.46041160       -0.79955398       -2.01475456
 C           -4.05099688        0.51378227       -1.85576760
 C           -3.20093678        1.44904572       -2.57512519
 C           -1.68153891       -1.69570907       -3.41466477
 C           -0.38703607       -1.28621844       -3.93131197
 C           -0.00975590        0.05375288       -3.85799706
 C           -0.93154834        1.00002628       -3.39561540
 C           -2.65373973       -0.73097065       -3.21878735
 C           -2.28408095        0.66422464       -3.38734938
