   70
C70 / DATE: 7/ 1/2024 / Origin: Program Fullerene / C70 from database
 C            1.44823012        0.15181488        5.04488102
 C            0.63986293       -1.02730087        4.79285622
 C            1.43915700       -1.94835427        4.02025726
 C            2.60833321        0.08103154        4.17164096
 C            2.65031368       -1.24995757        3.61239224
 C            2.54629077        1.21238851        3.26441357
 C            0.67273999        1.31323827        4.64645800
 C            1.48713541        2.08945904        3.73766833
 C           -0.62464340       -0.59008361        4.23755726
 C           -0.62578726        0.86053464        4.17845105
 C           -1.18778706       -1.27589513        3.17143013
 C            0.85347474       -2.53283821        2.82757596
 C           -0.47478715       -2.28642754        2.50644622
 C            2.76063209       -1.39038712        2.17569997
 C            1.82614169       -2.42036788        1.76566327
 C            2.69801316        1.02082745        1.88693662
 C            2.88959861       -0.26628246        1.36300933
 C            2.31195168        2.05495286        1.02568829
 C            0.83324306        2.87186218        2.80382705
 C            1.44590926        3.03979149        1.50309775
 C           -1.19381550        1.48350066        3.06242540
 C           -0.58626241        2.63613496        2.55748684
 C           -2.19626949       -0.62833002        2.47483250
 C           -2.05528283        0.74546865        2.23791780
 C           -2.94249313       -1.39900946        1.60048184
 C           -0.90416188       -2.65877795        1.23084081
 C           -2.25078735       -2.48988237        0.94210959
 C            1.36728685       -2.38592138        0.45470510
 C            0.02735237       -2.67511955        0.18119662
 C            2.72211381       -0.45417603       -0.00394050
 C            2.06703570       -1.60560050       -0.45482133
 C            2.45142385        1.89506920       -0.35643087
 C            2.82481487        0.64414396       -0.84940379
 C            1.80031541        2.79759501       -1.20010327
 C            0.39917433        3.53659203        0.63466343
 C           -0.85275094        3.04701671        1.18676289
 C            0.59938081        3.45759993       -0.72919649
 C           -2.46362280        1.28469138        1.00845829
 C           -1.68627337        2.26403407        0.39692226
 C           -3.76717940       -0.73450169        0.61874097
 C           -3.41365126        0.61663521        0.24499249
 C           -2.70249170       -2.53982957       -0.43032731
 C           -3.75329171       -1.54723575       -0.58051684
 C           -0.40614210       -2.60484947       -1.15255992
 C           -1.77616747       -2.66644296       -1.45604729
 C            1.75878584       -1.72411017       -1.80213259
 C            0.52319891       -2.28038953       -2.15694352
 C            2.85288682        0.41221038       -2.22264339
 C            2.44160445       -0.89707742       -2.69045964
 C            1.55715855        2.44146442       -2.58349214
 C            2.27313158        1.39107482       -3.12842309
 C           -0.48482623        2.97984674       -1.56726732
 C           -1.52204026        2.25654216       -0.99379223
 C            0.11351757        2.49418477       -2.79491061
 C           -3.29957437        0.65653321       -1.20456352
 C           -3.68318936       -0.65094278       -1.71804387
 C           -2.22292964        1.33655558       -1.77455037
 C           -2.21086607       -2.30153332       -2.72764424
 C           -3.04975144       -1.11856465       -2.85558232
 C            0.14251961       -2.33695951       -3.49827668
 C           -1.26356407       -2.26746919       -3.81889562
 C            1.97567791       -0.74459852       -4.05149360
 C            1.68379217        0.66673322       -4.23971845
 C            0.80761750       -1.48886752       -4.46859197
 C           -0.50911015        1.46837762       -3.50254903
 C           -1.70640896        0.91959247       -3.01234522
 C           -2.28197482       -0.18313292       -3.64750211
 C           -1.47532943       -1.00944614       -4.52135683
 C            0.25257491        0.77496439       -4.44761252
 C           -0.17917821       -0.52179937       -4.92634882
