   70
C70 / DATE: 7/ 1/2024 / Origin: Program Fullerene / C70 from database
 C            1.50546092        0.16469207        5.04362653
 C            0.73185912       -1.03507505        4.78621350
 C            1.63583857       -1.98853816        4.18781415
 C            2.69461154        0.10100185        4.20747959
 C            2.83164336       -1.26512144        3.76860638
 C            2.57875854        1.14254461        3.20376279
 C            0.72195297        1.29209812        4.58500634
 C            1.55942077        2.05944912        3.68361647
 C           -0.46062742       -0.65469304        4.04336144
 C           -0.54329907        0.79327105        4.06720161
 C           -0.78109289       -1.32991187        2.86579955
 C            1.17270778       -2.72957771        3.03591966
 C           -0.11779282       -2.52647767        2.55524710
 C            3.00877025       -1.52488776        2.35343483
 C            2.25528248       -2.72610134        2.07203932
 C            2.61122943        0.81586389        1.84124811
 C            2.94447804       -0.48420971        1.42642737
 C            2.08139918        1.72747366        0.91727216
 C            0.90998061        2.84112195        2.74984618
 C            1.40991783        2.84659430        1.38859510
 C           -1.08983756        1.45407532        2.97368386
 C           -0.52602340        2.67432051        2.62324555
 C           -1.52014685       -0.66223325        1.87810040
 C           -1.74346704        0.71907451        1.97839402
 C           -1.94770514       -1.35737529        0.74328992
 C           -0.42463346       -3.17248621        1.36663638
 C           -1.46731387       -2.64203290        0.51452956
 C            1.93168716       -2.98914002        0.75116576
 C            0.68230000       -3.54982657        0.50188536
 C            2.77091761       -0.83473672        0.08686521
 C            2.48530385       -2.17098942       -0.23005922
 C            1.92767822        1.35504811       -0.41980609
 C            2.51163954        0.16840922       -0.84757331
 C            1.04565965        2.05275169       -1.26864282
 C            0.34541681        3.40585445        0.58676380
 C           -0.88070783        3.25031681        1.35355552
 C            0.28192417        3.11791885       -0.77155391
 C           -2.32186371        1.40465569        0.89980593
 C           -1.97511157        2.74865064        0.67739137
 C           -2.54309093       -0.66740119       -0.31344481
 C           -2.91260782        0.66775740       -0.13481275
 C           -2.50815623       -1.22828566       -1.59805265
 C           -1.16350850       -3.04924907       -0.84749249
 C            0.18560332       -3.58977837       -0.86188117
 C           -1.58170072       -2.22924587       -1.88529913
 C            2.27057596       -2.52230775       -1.55674914
 C            1.04112839       -3.22658197       -1.89137441
 C            2.52360475       -0.13797791       -2.20076838
 C            2.51164362       -1.53296981       -2.58717227
 C            0.80423580        1.57310196       -2.56584716
 C            1.62693702        0.57759858       -3.09085957
 C           -0.38408672        1.90133091       -3.23124591
 C           -0.92923852        3.41630288       -1.39161356
 C           -2.13868108        3.26556452       -0.59559643
 C           -1.21140755        2.88923076       -2.70851622
 C           -3.56631569        1.34673072       -1.16353784
 C           -3.16237580        2.70491268       -1.43860736
 C           -2.65725722        2.74072162       -2.79690928
 C           -3.16375032       -0.60940351       -2.65237823
 C           -3.74479277        0.69942495       -2.44963452
 C           -3.20194469        1.58474500       -3.47447896
 C           -0.88076717        1.05220145       -4.22237851
 C           -2.50322702       -0.59252651       -3.94040218
 C           -2.30960168        0.79995651       -4.30092175
 C           -0.84064983       -2.16940222       -3.07363028
 C            0.48442049       -2.59861620       -3.07421432
 C            1.49470586       -1.70274109       -3.60650484
 C            1.07538514       -0.38322901       -4.03749227
 C           -1.21022597       -1.24430860       -4.04747756
 C           -0.24106992       -0.22732750       -4.44090151
