   70
C70 / DATE: 7/ 1/2024 / Origin: Program Fullerene / C70 from database
 C            1.35542153        0.04519671        5.09865942
 C            0.55631857       -1.09531606        4.69244334
 C            1.42298027       -1.97108621        3.93915714
 C            2.54464039        0.06151763        4.26097975
 C            2.64239211       -1.23332361        3.63169595
 C            2.46710365        1.23823941        3.41568466
 C            0.59694959        1.24192510        4.79200403
 C            1.45137361        2.10109706        3.99747395
 C           -0.64577165       -0.59545533        4.04791642
 C           -0.68070904        0.84552131        4.21983379
 C           -1.04395276       -1.12442130        2.82538861
 C            0.93059887       -2.50906414        2.68802195
 C           -0.35494832       -2.20154546        2.25422013
 C            2.82302944       -1.29468124        2.19455126
 C            2.00212145       -2.38798509        1.72446028
 C            2.53253586        1.10856533        2.02256991
 C            2.84528865       -0.12812499        1.43285125
 C            2.04618316        2.15342238        1.22629681
 C            0.82452421        3.00915205        3.16639372
 C            1.36030869        3.20309612        1.83468062
 C           -1.20705522        1.63655305        3.19844703
 C           -0.61224179        2.88104255        2.98470341
 C           -1.89809723       -0.37174367        2.02255868
 C           -1.91679717        1.02720123        2.15054190
 C           -2.47647221       -0.98416177        0.91121720
 C           -0.67310556       -2.55230608        0.94615756
 C           -1.91175612       -2.17190550        0.44083057
 C            1.65164895       -2.39859992        0.38443025
 C            0.37027067       -2.81075880        0.04881483
 C            2.71340855       -0.26913307        0.05093813
 C            2.27203143       -1.49618718       -0.46772956
 C            1.98646008        1.99615924       -0.16261070
 C            2.59870708        0.87787572       -0.72830487
 C            1.03664729        2.70205255       -0.91824217
 C            0.32027833        3.88215468        1.09388979
 C           -0.93381804        3.62805244        1.78838510
 C            0.12581977        3.53092804       -0.29375631
 C           -2.43721938        1.81812589        1.11368021
 C           -1.84525383        3.04297850        0.83208951
 C           -1.27948035        3.24718073       -0.49155455
 C           -3.29001040       -0.22626274        0.07973375
 C           -3.12342213        1.20949139        0.07144722
 C           -3.49875613       -0.63748023       -1.29561556
 C           -2.29565710       -2.69550969       -0.79063176
 C           -3.18399066       -1.93618372       -1.65523774
 C            0.06940572       -2.97045926       -1.30041551
 C           -1.25393879       -3.25456082       -1.62916653
 C            2.00387664       -1.60035410       -1.83162132
 C            0.92542238       -2.39678838       -2.25442314
 C            2.59803871        0.73988995       -2.11311110
 C            2.49467714       -0.59580824       -2.66024242
 C            0.67975246        2.20425912       -2.16038529
 C            1.67129927        1.55485712       -2.87160806
 C           -1.64690104        2.36335415       -1.50601690
 C           -2.78264511        1.59269116       -1.29237113
 C           -3.04404999        0.45412527       -2.14714527
 C           -0.66988223        1.89420647       -2.39668825
 C           -2.18976767        0.17672932       -3.21019361
 C           -1.01044596        0.92548719       -3.35594496
 C           -2.78119448       -2.18904501       -3.02872765
 C           -1.70240733       -3.16253003       -3.00199267
 C           -2.31766244       -1.06959297       -3.82659140
 C            0.61527153       -2.48656258       -3.61503259
 C           -0.74575081       -2.78104271       -4.01855677
 C           -1.25762803       -1.58285872       -4.66886111
 C            1.99107050       -0.45430444       -4.01242214
 C            1.32291828        0.83622823       -4.07653634
 C           -0.07641926        0.58028987       -4.33576693
 C            1.06471939       -1.44370683       -4.51441395
 C           -0.12628598       -0.73079706       -4.95122987
