   70
C70 / DATE: 7/ 1/2024 / Origin: Program Fullerene / C70 from database
 C            1.56121351       -0.01499088        4.85919989
 C            0.75865459       -1.20669884        4.64127915
 C            1.60953343       -2.17363699        3.99717692
 C            2.72346659       -0.11171950        3.99360947
 C            2.83287329       -1.48950684        3.58596132
 C            2.59495784        0.90315482        2.96642164
 C            0.78048075        1.12004589        4.41030609
 C            1.52404357        1.79785954        3.36633282
 C           -0.46175816       -0.80294990        3.96815595
 C           -0.54443871        0.64299980        4.07144762
 C           -0.84268994       -1.41091612        2.76531410
 C            1.10941874       -2.86123630        2.82585738
 C           -0.12104443       -2.50446762        2.26058340
 C            3.01945200       -1.78487503        2.17877184
 C            2.25250199       -2.98809413        1.94732624
 C            2.69788901        0.55925627        1.61887255
 C            2.94889236       -0.76473690        1.22416041
 C            2.20986932        1.46063806        0.67969994
 C            0.78525170        2.41740753        2.36618110
 C            1.31234058        2.45991335        1.07709223
 C           -1.21605479        1.31549105        3.06659153
 C           -0.60009086        2.43237091        2.50066319
 C           -1.74277359       -0.72830615        1.93701540
 C           -2.08983839        0.58427284        2.27149408
 C           -2.03137229       -1.22428998        0.66006605
 C           -0.38671011       -2.96282947        0.96767365
 C           -1.45021345       -2.42307365        0.23984992
 C            2.00450277       -3.34564340        0.64203437
 C            0.63266614       -3.62724516        0.28292619
 C            2.74402805       -1.13372506       -0.11472855
 C            2.49684556       -2.47415810       -0.40889104
 C            2.36801661        1.17681914       -0.66796554
 C            2.43906501       -0.15873605       -1.07113255
 C            2.06873194        2.17381571       -1.58322726
 C            0.63339254        3.20318377        0.10611017
 C            1.07894240        3.16647526       -1.21260341
 C           -1.33180987        3.17838378        1.58790254
 C           -0.67909703        3.60413246        0.35823223
 C           -2.95499353        1.29923840        1.45742786
 C           -2.65865227        2.70391741        1.23856333
 C           -2.83870079       -0.48686471       -0.21842187
 C           -3.36581212        0.73444773        0.18882671
 C           -2.89154632       -0.82186625       -1.57203516
 C           -1.68923268       -2.88919230       -1.05517333
 C           -2.44564941       -2.06894837       -1.98322012
 C            0.61583477       -3.64851871       -1.16153364
 C            1.73198022       -2.81244734       -1.59428528
 C           -0.60153460       -3.50771114       -1.79923564
 C            1.98079776       -0.54180768       -2.34400617
 C            1.51086355       -1.83961639       -2.56060177
 C            1.85621277        1.82459214       -2.97037292
 C            1.74261965        0.42508589       -3.31798950
 C            0.10382366        3.23039033       -2.29038335
 C            0.64685560        2.49717891       -3.41973947
 C           -1.66147905        3.54206541       -0.71498121
 C           -2.88976902        3.00197991       -0.16093225
 C           -3.46501009        1.82367944       -0.77256808
 C           -1.25053021        3.13660433       -1.98148832
 C           -3.04167048        0.18587576       -2.52557048
 C           -3.16197524        1.56526313       -2.09793454
 C           -2.08741143        2.31248011       -2.74306205
 C            0.58485998        0.28498839       -4.18440981
 C           -0.18275589        1.51721883       -4.09203183
 C           -2.21067268        0.17499914       -3.71871959
 C           -1.53841311        1.46351361       -3.79474028
 C           -1.83041070       -2.19425628       -3.29482520
 C           -0.59846880       -2.93828864       -3.13111953
 C            0.49587434       -2.05734423       -3.49279783
 C           -1.52002185       -0.98532928       -4.03934743
 C           -0.07415069       -0.93571165       -4.21905228
