   70
C70 / DATE: 7/ 1/2024 / Origin: Program Fullerene / C70 from database
 C            1.18842017       -0.04704894        4.63972163
 C            2.50186851       -0.24894977        4.06099418
 C            2.47387829       -1.50429447        3.32871253
 C            0.37498568       -1.20491037        4.30299813
 C            1.12389628       -2.02670311        3.37703209
 C           -0.92653248       -0.72951483        3.88563302
 C            0.43725080        1.14630859        4.28550708
 C           -0.88449765        0.72501562        3.85489322
 C            1.06786186        2.18264576        3.61042068
 C            3.04282548        0.77060866        3.18016403
 C            2.43938621        2.02025713        3.13646473
 C            3.06917602       -1.27553139        2.03057601
 C            3.43919367        0.12505241        1.93458758
 C            2.50027630       -1.86672934        0.91661241
 C            0.51127862       -2.40380758        2.18628555
 C            1.28574914       -2.55247722        1.02984902
 C           -1.58396979       -1.38229130        2.84890304
 C           -0.87824669       -2.31360077        2.07507837
 C           -2.66287718       -0.71280175        2.28206816
 C           -1.53035879        1.38384653        2.80765985
 C           -2.62077521        0.73922099        2.23656333
 C            0.33064822        2.90043253        2.58573460
 C           -0.83851926        2.34727320        2.06380550
 C            2.57994435        2.81038991        1.93079103
 C            1.30671246        3.46445561        1.67982173
 C            3.26704386        0.78438112        0.71153191
 C            2.98349819        2.14940513        0.70062682
 C            2.85158965       -1.35426271       -0.31816487
 C            3.01300231        0.03054391       -0.44159939
 C            2.53750268       -2.11513649       -1.42962773
 C            0.70004652       -3.08225201       -0.12729088
 C            1.38716211       -2.99730991       -1.33891070
 C           -1.49253971       -2.89135151        0.96919308
 C           -0.67143874       -3.31959313       -0.15112765
 C           -3.24678131       -1.18869619        1.04205316
 C           -2.71035229       -2.30573799        0.43186567
 C           -3.10547916        1.15588273        0.93817286
 C           -3.57941532       -0.02879284        0.23514482
 C           -1.18591350        2.58995107        0.72339853
 C           -2.41479746        2.12967738        0.22786001
 C            1.04902250        3.38146043        0.26168328
 C            2.15801274        2.69013590       -0.36489809
 C           -0.22379601        3.06891823       -0.17900059
 C            2.55782731        0.68154133       -1.59572922
 C            1.88903350        1.89494019       -1.47376225
 C            2.52038897       -1.47947825       -2.72700549
 C            2.40931868       -0.03723636       -2.77484766
 C            0.64055305       -2.87950114       -2.58394350
 C            1.41770651       -2.04451550       -3.48256786
 C           -1.42269434       -3.07609267       -1.37460668
 C           -2.62975155       -2.34910777       -1.01514029
 C           -0.74570574       -2.73771374       -2.54385768
 C           -3.45760923       -0.07246956       -1.15146591
 C           -3.00947199       -1.24875735       -1.77963227
 C           -2.69600396        2.25451390       -1.13353364
 C           -3.36867966        1.15469483       -1.80638590
 C           -0.36166828        2.75946499       -1.52189691
 C            0.68279726        2.07644963       -2.16185426
 C           -1.64698627        2.70506394       -2.02435549
 C            1.30562677        0.29033834       -3.66197997
 C            0.75098899       -0.96019331       -4.16899329
 C            0.44457133        1.33737781       -3.32991770
 C           -1.39184547       -1.93810200       -3.49240816
 C           -2.60959012       -1.23453671       -3.11521059
 C           -0.61844317       -1.05145285       -4.35693737
 C           -3.01166691        1.21677818       -3.20836726
 C           -1.87899296        2.12274079       -3.32662423
 C           -0.79799951        1.40021893       -3.95941230
 C           -2.66831478       -0.01004430       -3.88686122
 C           -1.36733051        0.18100944       -4.50449062
