   70
C70 / DATE: 7/ 1/2024 / Origin: Program Fullerene / C70 from database
 C            1.61257438        0.07657079        5.20743435
 C            0.79016415       -1.12277572        5.21025161
 C            1.47268022       -2.12471142        4.41407408
 C            2.65771842       -0.10779155        4.21646489
 C            2.64977711       -1.49934843        3.82902394
 C            2.48070692        0.89573847        3.18010769
 C            0.78066148        1.18060198        4.76688586
 C            1.36660098        1.74249220        3.55966153
 C           -0.56265768       -0.73797466        4.84617619
 C           -0.59039007        0.71189748        4.70991062
 C           -1.28348611       -1.52854899        3.95349636
 C            0.74836422       -2.79163854        3.34299911
 C           -0.61587625       -2.58546836        3.20106917
 C            2.64799711       -1.80800533        2.41603523
 C            1.58849056       -2.76023672        2.15979139
 C            2.59984258        0.53860609        1.84011671
 C            2.83157339       -0.79520038        1.48248989
 C            2.05399180        1.39628071        0.88105546
 C            0.51477882        2.20158450        2.55711479
 C            0.95234449        2.18263474        1.22771910
 C           -1.42709135        1.29113739        3.76754967
 C           -0.85452046        2.22249934        2.80811101
 C           -2.26527621       -0.91209048        3.07494260
 C           -2.38286191        0.46740014        3.04116677
 C           -1.19509995       -2.61740331        1.86984896
 C           -2.27732518       -1.65276154        1.82500717
 C            1.01276577       -2.73979233        0.89124719
 C           -0.37709669       -2.74604518        0.74958441
 C            2.63487117       -1.13552633        0.15277928
 C            1.76760606       -2.19182154       -0.14507151
 C            2.30232684        1.13000963       -0.46601667
 C            2.78893039       -0.13741972       -0.79295174
 C            1.67752774        1.91067296       -1.44596595
 C            0.09304751        2.62857411        0.21940639
 C            0.55109900        2.66577298       -1.10338449
 C           -1.76845546        2.27871597        1.69093747
 C           -2.63727729        1.12157375        1.76987042
 C           -1.28730827        2.60926799        0.44013872
 C           -2.51881226       -0.99592400        0.62136920
 C           -2.81828517        0.36882539        0.60866864
 C           -0.90663004       -2.39853973       -0.49282360
 C           -2.04234569       -1.58039151       -0.54915927
 C            1.28677721       -2.30629056       -1.45000797
 C           -0.08675007       -2.49452011       -1.61685195
 C            2.82139513       -0.53900203       -2.11686849
 C            2.03027424       -1.70313226       -2.46476460
 C            1.99341007        1.69425284       -2.78816724
 C            2.64366746        0.45376022       -3.15048981
 C            1.01647401        1.98557589       -3.82258724
 C           -0.35215009        3.05811644       -2.09877014
 C           -0.10888161        2.72394753       -3.49255661
 C           -2.10222195        2.29331310       -0.63170929
 C           -2.73919589        1.04572676       -0.61296745
 C           -1.76636793        2.86471437       -1.84413603
 C           -2.42311853       -1.03437453       -1.77236730
 C           -2.82175872        0.30771830       -1.79727771
 C           -0.67176968       -2.32708245       -2.86846623
 C           -1.95593871       -1.65759079       -2.92750850
 C            1.43638304       -1.46659265       -3.76775038
 C            1.88375412       -0.15975471       -4.22590507
 C            0.90214637        0.80854582       -4.68056622
 C            0.12309303       -1.85141822       -3.98887457
 C           -2.05475297       -0.99573519       -4.21196805
 C           -0.34794158        0.35690976       -5.09415481
 C           -0.73408960       -1.01857079       -4.82001699
 C           -1.38843673        2.40439846       -4.10563830
 C           -2.38059358        2.34989315       -3.04733368
 C           -2.91017009        1.00432634       -3.00400124
 C           -1.51881436        1.18756599       -4.88422070
 C           -2.54006772        0.36385850       -4.25120607
