   70
C70 / DATE: 7/ 1/2024 / Origin: Program Fullerene / C70 from database
 C            1.67638770        0.09097690        4.48791193
 C            0.85107448       -1.10198162        4.45442390
 C            1.42757677       -2.01284652        3.48499799
 C            2.66270254       -0.01986939        3.42451026
 C            2.55252950       -1.33679138        2.85159468
 C            2.50178589        1.11044693        2.54308225
 C            0.82276819        1.22258804        4.17891398
 C            1.41124223        1.91870076        3.05990093
 C           -0.52624731       -0.69030621        4.28029121
 C           -0.53655075        0.74528074        4.03647372
 C           -1.36167862       -1.49895148        3.52608119
 C            0.58780087       -2.78955792        2.68707803
 C           -0.79740525       -2.60082740        2.75270806
 C            1.13500853       -3.34392637        1.53359657
 C            2.72335858       -1.49869598        1.48226712
 C            2.31898150       -2.71831606        0.96767121
 C            2.57323077        0.91738113        1.16260171
 C            2.73704668       -0.37463796        0.63452273
 C            2.04548887        1.91754234        0.34678032
 C            0.57340665        2.50630158        2.13043332
 C            1.12846169        2.81791628        0.90396476
 C           -1.31659360        1.25187045        2.99714706
 C           -0.80848588        2.28304046        2.18947286
 C           -2.39335768       -0.87816546        2.71600391
 C           -2.41082702        0.50494453        2.55628654
 C           -1.60898190       -2.75682830        1.54972569
 C           -2.61610425       -1.71553816        1.54841903
 C            0.26720895       -3.68342328        0.42040086
 C           -0.99974186       -3.11703905        0.35766762
 C            2.27832392       -2.90798255       -0.46061059
 C            1.09839254       -3.70452988       -0.76502917
 C            2.67992152       -0.55276941       -0.76054013
 C            2.60759027       -1.85134177       -1.29727157
 C            2.16661641        1.79923888       -1.03647665
 C            2.52763936        0.57015987       -1.59200978
 C            1.65419345        2.79927814       -1.86432668
 C            0.41016473        3.67635913        0.09464033
 C            0.76111093        3.78970295       -1.30073416
 C           -1.61932089        2.84124042        1.19000063
 C           -1.03576994        3.65315811        0.20865684
 C           -3.21712587        1.02022784        1.55095592
 C           -2.88422932        2.30352235        0.96622998
 C           -2.97355811       -1.09844206        0.35603907
 C           -3.60455964        0.13655094        0.46184137
 C           -1.44964443       -2.55929000       -0.84365991
 C           -2.28645776       -1.43286526       -0.82152716
 C            0.49611275       -3.53376471       -1.99920159
 C           -0.82832504       -2.92777654       -2.03995824
 C            2.37536755       -2.04065877       -2.65622657
 C            1.28876591       -2.92159598       -3.04924764
 C            2.44173045        0.41910928       -2.97632267
 C            2.34798691       -0.90590348       -3.54531156
 C            1.09865129        2.43302751       -3.15280618
 C            1.49028125        1.23263760       -3.70948392
 C           -0.47138409        3.76137923       -2.07218380
 C           -1.58140392        3.67934070       -1.14397398
 C           -0.32324651        2.72635390       -3.07861814
 C           -3.44175295        2.31353165       -0.37609454
 C           -3.79260298        0.94565837       -0.71863128
 C           -2.64507366        2.85091106       -1.45963208
 C           -2.33071275       -0.58557351       -1.94158047
 C           -1.24110161        1.67349969       -3.12332865
 C           -3.06784696        0.58835237       -1.91473323
 C           -2.45541150        1.79036334       -2.44444881
 C           -0.85152189       -2.00062459       -3.15745314
 C            0.38997281       -2.15380129       -3.88728235
 C            1.09978652       -0.96554090       -4.29864628
 C            0.45232476        0.31917466       -4.13584716
 C           -1.38609135       -0.73560898       -2.94950703
 C           -0.79787843        0.40600410       -3.52058845
