   70
C70 / DATE: 7/ 1/2024 / Origin: Program Fullerene / C70 from database
 C            1.22538543       -0.00392540        4.20809447
 C            2.55814381       -0.34533633        3.77303840
 C            2.56276647       -1.76017058        3.44039252
 C            0.40446324       -1.20193497        4.09995985
 C            1.18074617       -2.20376113        3.40635435
 C           -0.86538959       -0.80396870        3.53740196
 C            0.52049366        1.05999382        3.52030755
 C           -0.86356560        0.64051121        3.43436574
 C            1.09439560        1.68890696        2.41319480
 C            3.11892674        0.36644389        2.64539315
 C            2.42874621        1.42784608        2.06222060
 C            3.37269142       -1.93576966        2.24950919
 C            3.76032432       -0.60977384        1.77896230
 C            2.97477988       -2.88738627        1.32488983
 C            0.68343643       -2.76197234        2.23027518
 C            1.58717520       -3.33563239        1.33312789
 C           -1.40682228       -1.52288365        2.48056214
 C           -0.62190819       -2.47044131        1.80240047
 C           -2.49654790       -0.95373613        1.82267022
 C           -1.65795788        1.21106815        2.45510168
 C           -2.66558752        0.43422737        1.88450463
 C            0.24104309        2.34886591        1.51660493
 C           -1.13987595        2.27465579        1.72147045
 C            0.74276264        2.91088391        0.33646985
 C            2.91490931        1.89413399        0.85017281
 C            2.08400006        2.73818900        0.01568443
 C            3.84201914       -0.33952836        0.41019107
 C            3.62624338        0.96757755       -0.02069386
 C            3.37425867       -2.71080678       -0.05513611
 C            3.72515934       -1.37962594       -0.51376338
 C            1.18423296       -3.55988888       -0.04354248
 C            2.30023451       -3.20349914       -0.89902828
 C           -1.04368778       -2.93317654        0.55182723
 C           -0.09037970       -3.18182806       -0.43363814
 C           -3.12495999       -1.68938640        0.82504237
 C           -2.36369634       -2.73000420        0.16282059
 C           -3.94443310       -1.01908338       -0.17354740
 C           -3.59089777        1.06285107        1.05749655
 C           -4.13109880        0.35080352       -0.08622652
 C           -1.99841777        2.97676600        0.88608153
 C           -3.32054191        2.42700954        0.63634712
 C           -0.13358884        3.37022748       -0.65316113
 C           -1.49041644        3.49925071       -0.36656905
 C            0.28361065        3.38734375       -1.98487647
 C            2.45325403        2.47450714       -1.36374309
 C            3.15411049        1.20208072       -1.37359902
 C            1.51843421        2.72125567       -2.35276079
 C            3.02256264       -1.15113738       -1.77002820
 C            2.07426917       -2.23201015       -1.95393817
 C            2.63393569        0.13771325       -2.10551845
 C           -0.27014893       -2.64318489       -1.70915987
 C            0.76477665       -1.91872084       -2.29655954
 C           -2.66160851       -2.65874922       -1.25608357
 C           -3.62569770       -1.59302502       -1.46493699
 C           -1.56005402       -2.45706192       -2.17761256
 C           -3.11534666       -0.72386170       -2.50997992
 C           -1.84980892       -1.27686350       -2.97139633
 C           -3.90877112        1.18069549       -1.26396039
 C           -3.58310818        2.51436264       -0.78986724
 C           -2.47986281        3.22294245       -1.40303246
 C           -3.23878821        0.65769417       -2.37437219
 C           -0.67435349        3.07910395       -3.03011094
 C           -2.04864444        2.81324873       -2.65443009
 C           -2.38378400        1.47258333       -3.11943486
 C            1.14973202        1.62814583       -3.23409599
 C            1.46846036        0.32920140       -2.85057971
 C            0.48695014       -0.67673800       -2.87434694
 C           -0.82003370       -0.40255971       -3.30924543
 C           -0.16989049        1.91913178       -3.74881080
 C           -1.17775921        0.88721046       -3.68514949
