   70
C70 / DATE: 7/ 1/2024 / Origin: Program Fullerene / C70 from database
 C            1.16810894       -0.15000290        4.55729696
 C            2.33974426       -0.45774997        3.77007168
 C            2.16411773       -1.79481139        3.22338202
 C            0.32161471       -1.33271614        4.55550904
 C            0.80304580       -2.20260051        3.49852022
 C           -1.05028713       -0.87916985        4.50527075
 C            0.33942070        0.96973086        4.15626886
 C           -1.03223079        0.57142636        4.38811608
 C            0.63325741        1.66682550        2.98584749
 C            2.68102044        0.41307315        2.66296922
 C            1.87608138        1.50634829        2.35158333
 C            2.60450473       -1.75871985        1.84449641
 C            3.12274872       -0.43297046        1.57471850
 C            1.82453317       -2.34987806        0.86610763
 C           -0.03226034       -2.51321139        2.42460689
 C            0.53615776       -2.80421149        1.17576642
 C           -1.90548666       -1.38375225        3.45118495
 C           -1.41400555       -2.30447823        2.53119062
 C           -2.02987705        0.94589645        3.40350968
 C           -2.69507356       -0.26947020        2.95772672
 C           -0.39595761        2.35269952        2.33155063
 C           -1.72047077        1.91301509        2.45603707
 C           -0.06285272        3.25448020        1.32705348
 C            2.09347555        2.13130535        1.12243530
 C            1.27417371        3.19747479        0.76903351
 C            3.01020658        0.06949204        0.28343235
 C            2.79551070        1.43625903        0.12889669
 C            2.12817389       -2.05156609       -0.45479529
 C            2.64912254       -0.79103028       -0.76079156
 C            1.52983445       -2.81200202       -1.44138268
 C           -0.26677879       -3.30894804        0.14894907
 C            0.29132010       -3.49735318       -1.11579625
 C           -2.22134426       -2.57794681        1.43708241
 C           -1.65084099       -3.20916103        0.26361189
 C           -3.19850957       -0.33039952        1.65696841
 C           -3.15053805       -1.55065810        0.98262049
 C           -2.58440365        2.03122127        1.37336814
 C           -3.30237420        0.85112523        0.92077972
 C           -0.98948958        3.48406874        0.22957112
 C           -2.18810096        2.79388963        0.20490642
 C            1.19257596        3.61714374       -0.61735937
 C           -0.21232829        3.58692437       -0.99105711
 C            2.91741517        1.97219695       -1.14748192
 C            2.12802628        3.13611233       -1.51922802
 C            2.54435769       -0.27485439       -2.05917917
 C            2.91424608        1.05525983       -2.27517210
 C            1.42447725       -2.28407553       -2.78695961
 C            1.85770245       -0.98923230       -3.05387513
 C           -0.56928280       -3.42828750       -2.28333492
 C            0.14267785       -2.70973717       -3.32515549
 C           -2.44254031       -2.77546724       -0.87899703
 C           -3.14905310       -1.57429043       -0.47134300
 C           -1.87969043       -2.82379350       -2.14281535
 C           -3.21673412        0.81513374       -0.53329584
 C           -2.53350042        2.01760131       -0.97497418
 C           -2.95853512       -0.38862087       -1.17482938
 C           -0.59688111        2.87466973       -2.12605798
 C           -1.63469740        1.93698172       -2.03371614
 C            1.71820157        2.96159360       -2.90186328
 C            2.38847330        1.78036704       -3.41430733
 C            0.30116108        2.81573121       -3.18731429
 C            1.23042908       -0.30878053       -4.10040166
 C            1.46296531        1.10662210       -4.29468903
 C            0.16864964        1.76756431       -4.17621890
 C           -0.75165391       -1.69751709       -3.85743135
 C           -1.88695901       -1.61708068       -2.95227550
 C           -2.21461682       -0.39626382       -2.35761517
 C           -1.62483910        0.78390758       -2.82713795
 C           -0.18942570       -0.51950765       -4.31785938
 C           -0.82591214        0.73417540       -3.96572883
