   70
C70 / DATE: 7/ 1/2024 / Origin: Program Fullerene / C70 from database
 C            1.56292919       -0.05911321        4.67243901
 C            0.74964217       -1.25765528        4.70002461
 C            1.37738520       -2.24245247        3.83319272
 C            2.59210985       -0.25612634        3.66785099
 C            2.37727600       -1.54379980        3.04195609
 C            2.58624190        0.90927738        2.81811452
 C            0.71995453        1.03580216        4.22067205
 C            1.41536671        1.70285028        3.14076992
 C           -0.62392477       -0.86939294        4.42741185
 C           -0.59791951        0.50491730        3.94845052
 C           -1.44356247       -1.78703807        3.78761452
 C            0.56247343       -3.17060726        3.20652837
 C           -0.87553949       -3.07028351        3.40558988
 C            0.77854583       -3.45792480        1.79879018
 C            2.32586278       -1.60575395        1.64770464
 C            1.57640943       -2.60759211        1.02718346
 C            2.86687075        0.75256987        1.47339178
 C            2.78671947       -0.52107360        0.89171789
 C            2.58358724        1.83822696        0.66555230
 C            0.68017495        2.20537503        2.06870206
 C            1.38555280        2.52243795        0.90801660
 C           -1.19668109        0.82026435        2.73143336
 C           -0.66978191        1.85622016        1.94363174
 C           -2.27841646       -1.33943423        2.68533781
 C           -2.12951730       -0.05521585        2.17461336
 C           -1.52305541       -3.49780762        2.17930943
 C           -0.48794415       -3.92968311        1.26179398
 C           -2.42208904       -2.44112606        1.75048590
 C           -0.72140692       -3.77233402       -0.09213430
 C            1.40798331       -2.58795841       -0.35962342
 C            0.37381844       -3.33282043       -0.92857511
 C            2.80336983       -0.61554106       -0.50620951
 C            2.06157667       -1.62342426       -1.13218119
 C            3.10967319        1.80510473       -0.61084974
 C            3.21462806        0.50404935       -1.24002603
 C            2.63097850        2.75319772       -1.58915744
 C            0.69164042        3.10766063       -0.15069145
 C            1.37400050        3.41809322       -1.32535830
 C           -1.35586497        2.23907102        0.78573439
 C           -0.70258340        3.04227450       -0.15882991
 C           -2.60477057        0.20730369        0.89890614
 C           -2.47703176        1.49654802        0.40424495
 C           -2.50886904       -2.15224808        0.39121617
 C           -1.88363596       -3.00373343       -0.51783342
 C           -2.78521412       -0.84489503       -0.00384292
 C           -0.22754577       -2.88551385       -2.16899435
 C           -1.60400728       -2.52454658       -1.86502958
 C            1.77070095       -1.53590180       -2.49646824
 C            0.51093294       -2.05929282       -2.99312962
 C            2.82617789        0.65979628       -2.63264364
 C            2.50701945        2.05691533       -2.85853003
 C            2.03764877       -0.30895388       -3.22279178
 C            0.65182139        3.45657632       -2.58164683
 C            1.21474906        2.40659513       -3.42279747
 C           -1.40524105        3.50577775       -1.27152894
 C           -0.72129986        3.62462738       -2.55128615
 C           -3.13263123        1.79511934       -0.78235292
 C           -2.72252467        2.96278505       -1.53111381
 C           -2.87478377       -0.55184907       -1.36323479
 C           -2.08336007       -1.27772274       -2.26142690
 C           -3.34233724        0.70734250       -1.72231506
 C           -0.16296239       -0.97826575       -3.69019205
 C            0.81251649        0.07484292       -3.91678950
 C            0.38318155        1.40351347       -3.92636511
 C           -1.46251606       -0.62688401       -3.33659473
 C           -1.51019720        2.90774942       -3.53268086
 C           -2.80634499        2.63348997       -2.94323082
 C           -3.04687271        1.20523691       -3.04723100
 C           -0.98025794        1.66394943       -4.06364204
 C           -1.93882906        0.60840390       -3.76105222
