   70
C70 / DATE: 7/ 1/2024 / Origin: Program Fullerene / C70 from database
 C            1.20758242       -0.03990851        4.96434857
 C            0.47186143       -1.22740825        4.57504590
 C            1.37891875       -2.09247224        3.85706759
 C            2.49736059       -0.08340114        4.29437754
 C            2.60874556       -1.35314909        3.61531266
 C            2.61438341        1.11887017        3.50239261
 C            0.48330213        1.11568248        4.45742938
 C            1.40574019        1.90548782        3.68677863
 C           -0.73540902       -0.79731744        3.89789739
 C           -0.70916326        0.65047430        3.79421188
 C           -1.19296089       -1.50311099        2.79266553
 C            0.93833069       -2.62504285        2.58555842
 C           -0.38729816       -2.47661898        2.19198566
 C            2.85054806       -1.35425864        2.18064567
 C            1.96243225       -2.34192996        1.60044712
 C            3.13926891        1.05451830        2.21402861
 C            3.04849599       -0.15296938        1.50006694
 C            3.07935739        2.24442053        1.50080350
 C            0.94142999        2.60111919        2.57840430
 C            1.94373629        3.11344417        1.76938978
 C           -1.07998945        1.22287404        2.57734307
 C           -0.26951955        2.20220951        1.97208567
 C           -2.12054241       -0.86221032        1.98075849
 C           -1.98769954        0.51802749        1.78831376
 C           -2.74029656       -1.61284113        0.98931578
 C           -0.69043220       -2.81316313        0.87849013
 C           -2.01129946       -2.68663030        0.46665687
 C            1.55488283       -2.18944419        0.28151875
 C            0.31620541       -2.70350692       -0.08812403
 C            2.81703076       -0.12610208        0.11809823
 C            2.10440601       -1.17303524       -0.49424835
 C            3.27051240        2.22661658        0.06869719
 C            3.15173255        1.01940031       -0.60989627
 C            1.58372351        3.77087889        0.54028888
 C            2.57213329        3.38776236       -0.44989110
 C           -0.55478011        2.59783912        0.64827650
 C            0.28181978        3.48951700       -0.01449282
 C           -2.40655595        1.07591748        0.58474005
 C           -1.53119077        1.92263452       -0.08884533
 C           -3.67533703       -0.95374610        0.19842519
 C           -3.41944799        0.43675227       -0.11843787
 C           -4.19939369       -1.59557242       -0.98816562
 C           -2.33196596       -3.21352670       -0.77777822
 C           -3.56268762       -2.81417382       -1.43111279
 C           -0.04307592       -2.69125572       -1.43498550
 C           -1.27670508       -3.24711630       -1.77418664
 C            1.72065709       -1.07337007       -1.83418424
 C            0.59215688       -1.78019803       -2.30028308
 C            2.91889128        1.05502979       -1.98285579
 C            2.31373021       -0.09558817       -2.62565610
 C            1.88764009        3.25233483       -1.71417036
 C            0.45426509        3.35568912       -1.44826344
 C            2.32335713        2.25397954       -2.56920634
 C           -1.46461878        1.89441655       -1.49370993
 C           -0.42499899        2.54599833       -2.16365931
 C           -3.45855761        0.55911262       -1.56217015
 C           -4.12458548       -0.62905253       -2.07341344
 C           -2.34200381        1.07661794       -2.21863442
 C           -3.28755821       -2.67993288       -2.84861878
 C           -1.86762735       -2.92587383       -3.04927010
 C           -3.55481288       -1.29941210       -3.21874327
 C           -0.02270313       -1.39991942       -3.51291403
 C           -1.92885894        0.52808033       -3.44518677
 C           -1.32704664       -1.80271134       -3.76682649
 C           -2.33934895       -0.75934542       -3.78213473
 C            1.60230415        0.39514589       -3.78105504
 C            1.41217811        1.82213416       -3.60291041
 C           -0.00589730        2.04218648       -3.38942675
 C            0.30767315       -0.16958748       -4.05949491
 C           -0.68242510        0.88973104       -3.93891378
