   70
C70 / DATE: 7/ 1/2024 / Origin: Program Fullerene / C70 from database
 C            1.27269032       -0.04398767        4.66025934
 C            2.57118328       -0.36275646        4.09666788
 C            2.52142738       -1.72915804        3.60338709
 C            0.44354026       -1.23176715        4.56158322
 C            1.16537793       -2.21991294        3.77852197
 C           -0.87158009       -0.82114216        4.11108363
 C            0.51972304        1.06944113        4.10777878
 C           -0.79027035        0.57661048        3.71569101
 C            1.16072890        1.98579445        3.28863749
 C            3.09619933        0.47461585        3.03438116
 C            2.49953386        1.70175583        2.77880022
 C            3.10540257       -1.74972875        2.27602605
 C            3.44002878       -0.38234176        1.91023056
 C            2.54570748       -2.57960718        1.32059675
 C            0.51738081       -2.83732715        2.70864072
 C            1.24945686       -3.19489245        1.57594233
 C           -1.58281455       -1.68941297        3.30335363
 C           -0.87347971       -2.77326059        2.63227468
 C           -2.50164420       -1.13187266        2.33398401
 C           -1.35393604        0.98243009        2.50090434
 C           -2.32324718        0.17944070        1.89295221
 C            0.40899377        2.60893130        2.21425902
 C           -0.79615170        2.05308676        1.79318840
 C            2.57015161        2.24091866        1.43421512
 C            1.36817299        3.02572301        1.21347713
 C            3.20370427        0.07151710        0.61005962
 C            3.04265512        1.44497030        0.39416766
 C            2.56227949       -2.16203542       -0.06695902
 C            2.85123135       -0.84103552       -0.39573079
 C            0.57778829       -3.35144069        0.29236356
 C            1.45389828       -2.81602017       -0.73332368
 C           -1.54431731       -3.00566109        1.35955703
 C           -2.73659452       -2.17426523        1.35640263
 C           -0.79154517       -3.12976620        0.19284110
 C           -3.28848883       -1.81049203        0.14390422
 C           -2.85452384        0.54744727        0.65610751
 C           -3.55817134       -0.40476637       -0.08465591
 C           -1.24819217        2.34090702        0.50393043
 C           -2.39609938        1.70315312        0.02452340
 C            0.93231973        3.19681094       -0.09126844
 C           -0.43023832        3.08423039       -0.36244012
 C            2.84922013        1.91173675       -0.90033572
 C            1.84039864        2.93635911       -1.11415463
 C            2.46771174       -0.37451779       -1.65366355
 C            2.70911259        0.95489505       -1.97636642
 C            0.88797753       -2.19235203       -1.83317029
 C            1.56310912       -1.11996249       -2.41752733
 C           -1.32960997       -2.69947257       -1.02488971
 C           -2.66383582       -2.29548086       -1.06944433
 C           -0.47402322       -2.36456342       -2.07999153
 C           -3.69693222       -0.24144397       -1.52135475
 C           -3.12041428       -1.42731384       -2.14303091
 C           -2.92115297        2.05044656       -1.21843628
 C           -3.46417206        1.00892419       -2.07257340
 C           -0.86398585        3.37489103       -1.65146946
 C           -2.18957242        2.96895521       -2.06360257
 C            1.36424884        2.81242952       -2.48248436
 C            1.94308543        1.59582481       -3.03432108
 C            0.04287024        3.13773931       -2.76243703
 C            1.10928265       -0.62026048       -3.63476355
 C            1.19650742        0.80539401       -3.89600676
 C           -1.00745579       -1.88839408       -3.27578431
 C           -2.33425080       -1.29764683       -3.27771606
 C           -0.16664566       -1.08571515       -4.14552484
 C           -2.81311441        1.11629524       -3.36866078
 C           -2.08609415        2.37546076       -3.38856821
 C           -0.68443410        2.39219819       -3.77679365
 C           -0.11341986        1.25651322       -4.34198744
 C           -2.24937791       -0.01265359       -3.95463610
 C           -0.93331383        0.07658042       -4.56662093
