   70
C70 / DATE: 7/ 1/2024 / Origin: Program Fullerene / C70 from database
 C            1.50356486        0.01860158        4.43346925
 C            0.68783534       -1.15065965        4.16438362
 C            1.49458715       -2.04831549        3.38401982
 C            2.61669322        0.00049727        3.49672579
 C            2.64937473       -1.30649908        2.90093685
 C            2.48147089        1.13783596        2.61723208
 C            0.70196813        1.18147439        4.12629253
 C            1.44569718        1.98611096        3.17906174
 C           -0.56292133       -0.71205233        3.58830642
 C           -0.61751301        0.73297523        3.72242503
 C           -0.98966582       -1.29419380        2.39621214
 C            0.87371212       -2.86880107        2.45982035
 C           -0.35673012       -2.45263722        1.90938340
 C            1.75939366       -3.52943573        1.62816721
 C            2.95421591       -1.42989090        1.54987943
 C            2.82059897       -2.71922299        1.05085349
 C            2.51219999        0.95055892        1.23042879
 C            2.68669717       -0.34155009        0.69482853
 C            1.99243670        1.97383218        0.42810153
 C            0.71363850        2.75055070        2.29306622
 C            1.28125088        3.00865561        1.05501467
 C           -1.25207747        1.46802391        2.73241891
 C           -0.67686904        2.68071228        2.36246696
 C           -1.83590514       -0.56419990        1.55902083
 C           -2.04478926        0.80450538        1.79705030
 C           -2.32666452       -1.16208322        0.39851566
 C           -0.78269598       -2.99856471        0.68503225
 C           -1.66225712       -2.27282720       -0.13010401
 C            1.22916424       -4.37368385        0.59374362
 C           -0.12475999       -4.11668491        0.16695160
 C            2.78445780       -2.93547888       -0.37371687
 C            2.08328000       -4.19662040       -0.56466767
 C            2.38913503       -0.57232702       -0.66138115
 C            2.50240651       -1.85929928       -1.20689477
 C            1.87556961        1.77638365       -0.95109506
 C            1.93518368        0.48028943       -1.46626339
 C            1.33124573        2.78315533       -1.75166632
 C            0.70133664        4.02088092        0.30361713
 C            0.82644313        3.99038223       -1.13449164
 C           -1.40513949        3.51704503        1.53002279
 C           -0.66798909        4.38448845        0.62483534
 C           -2.76958699        1.57305448        0.88239236
 C           -2.51585149        2.94590811        0.78702415
 C           -3.21181227       -0.45672654       -0.41478227
 C           -3.48095063        0.94048578       -0.12976064
 C           -3.08976476       -0.59859323       -1.85509531
 C           -1.67308217       -2.46539020       -1.52053130
 C           -2.07130418       -1.40833278       -2.33030298
 C           -0.14231475       -4.35584197       -1.26071049
 C            1.24085271       -4.35674061       -1.72760867
 C           -0.88492430       -3.44713650       -2.10199527
 C            2.01746328       -2.10942217       -2.49022963
 C            1.34381618       -3.36645138       -2.77663226
 C           -0.00964709       -3.03745626       -3.17830390
 C            1.27995367        0.20999623       -2.67279609
 C           -1.14402757       -0.87548159       -3.23653475
 C            1.27001810       -1.07887427       -3.17578350
 C           -0.01987707       -1.63471126       -3.54537969
 C            0.40170293        2.40932546       -2.80186748
 C            0.25748517        1.05945116       -3.07859083
 C           -1.00886974        0.51093337       -3.31269581
 C           -0.48099001        4.28118289       -1.70680309
 C           -1.41369820        4.48221940       -0.61547574
 C           -2.56768349        3.60734044       -0.51107546
 C           -0.77154733        3.25744986       -2.69296983
 C           -3.66283576        1.62414890       -1.39925095
 C           -3.27333116        0.70816050       -2.45328512
 C           -2.14998439        1.29112585       -3.15543354
 C           -2.96543219        2.87600235       -1.62129320
 C           -2.03135689        2.67244229       -2.72623208
