   70
C70 / DATE: 7/ 1/2024 / Origin: Program Fullerene / C70 from database
 C            1.14568605       -0.03700673        4.51901223
 C            2.50951939       -0.29515198        4.10302704
 C            2.56752014       -1.67586623        3.65982465
 C            0.34884090       -1.20836779        4.17477449
 C            1.20346903       -2.13720870        3.47705302
 C           -0.84376337       -0.74721024        3.51072317
 C            0.45811110        1.12959006        3.99591514
 C           -0.86673512        0.69875568        3.60030255
 C            1.13835873        2.02590002        3.18475272
 C            3.09798765        0.52603535        3.05903417
 C            2.45055838        1.68227878        2.64614575
 C            3.45566460       -1.73657999        2.51939834
 C            3.65955866       -0.36705958        2.05810172
 C            3.19832236       -2.70708805        1.56711692
 C            0.82926643       -2.61688248        2.22141276
 C            1.82704439       -3.19663069        1.44410956
 C           -1.23976343       -1.32854909        2.30942663
 C           -0.34846111       -2.15278419        1.60410068
 C           -2.25315617       -0.67968404        1.61011472
 C           -1.54770809        1.37359313        2.59912061
 C           -2.52684982        0.65605637        1.93035301
 C            0.40463944        2.72237790        2.14167303
 C           -0.93986751        2.43544833        1.91696592
 C            2.44384676        2.01669210        1.23460003
 C            1.27915201        2.84797254        0.99314835
 C            3.52147833       -0.07533469        0.69555012
 C            2.79696081        1.05238735        0.29322893
 C            3.68370697       -2.46538927        0.22680650
 C            3.77613357       -1.08878058       -0.22321947
 C            1.57804232       -3.47005735        0.04704365
 C            2.79802549       -3.16163856       -0.68017544
 C           -0.60187624       -2.44535161        0.24909397
 C            0.36544143       -3.10478250       -0.52336418
 C           -2.67040183       -1.19474475        0.38695045
 C           -1.77175167       -1.96072250       -0.36688610
 C           -3.81457288       -0.65862998       -0.20252963
 C           -3.39707935        1.38094383        1.13810166
 C           -4.23006075        0.67086423        0.19460049
 C           -1.50795107        2.85350276        0.70668176
 C           -2.85206052        2.54948306        0.47763955
 C            0.70381338        2.83850976       -0.26627736
 C           -0.66174934        3.10749233       -0.38078928
 C            2.23648469        1.12191377       -0.98860347
 C            1.35939879        2.16586191       -1.29734441
 C            3.18262892       -1.02589554       -1.54643600
 C            2.68794280       -2.35538339       -1.87797611
 C            2.42042346        0.08095850       -1.90637661
 C            0.33464550       -2.97106302       -1.90625415
 C            1.50633808       -2.44522333       -2.59176796
 C           -1.92335640       -2.05761183       -1.76220776
 C           -0.82718416       -2.39375494       -2.53516829
 C           -3.97872681       -0.74221371       -1.63460324
 C           -2.90559163       -1.31731900       -2.40465237
 C           -4.33534751        1.48745582       -1.00220250
 C           -3.39827588        2.59163109       -0.86923497
 C           -4.22433491        0.60039474       -2.14230600
 C           -1.19648908        3.31795539       -1.64861841
 C           -2.56360631        2.91906652       -1.92903602
 C            0.86156446        2.26940605       -2.59027118
 C           -0.39335164        2.96862395       -2.80518513
 C            1.56005833       -0.03161233       -3.00191897
 C            1.06086116       -1.28478764       -3.33749720
 C           -0.36850282       -1.43942419       -3.53385434
 C            0.85634874        1.08655561       -3.42744242
 C           -2.48975208       -0.34658882       -3.40637465
 C           -3.22678683        0.88406449       -3.15846461
 C           -2.54904586        2.09640800       -3.13413053
 C           -1.21269036        2.15615787       -3.69075356
 C           -1.14409876       -0.30969810       -3.78227438
 C           -0.49689397        0.91774008       -3.94170757
