   70
C70 / DATE: 7/ 1/2024 / Origin: Program Fullerene / C70 from database
 C            1.13314198       -0.13253220        4.55520440
 C            2.46711977       -0.33703662        4.02757539
 C            2.44802532       -1.57349024        3.26000741
 C            0.31697435       -1.25609742        4.12191047
 C            1.06932776       -1.99966697        3.13940914
 C           -0.96733012       -0.73656766        3.72825138
 C            0.41541277        1.08747982        4.22474852
 C           -0.93917084        0.71123038        3.86988370
 C            1.04620961        2.08862910        3.50317498
 C            3.06552282        0.68920065        3.19196316
 C            2.39269061        1.88892688        2.97735357
 C            3.19963185       -1.34725712        2.04534656
 C            3.70528027        0.01494700        2.07565081
 C            2.70495671       -1.83548721        0.84383951
 C            0.53073392       -2.17055145        1.86484270
 C            1.39152144       -2.32706591        0.78134313
 C           -1.59599343       -1.25992146        2.60837175
 C           -0.82609843       -1.91296315        1.62908513
 C           -2.74544069       -0.59692002        2.21931284
 C           -1.67276252        1.47057477        2.95579929
 C           -2.78638594        0.84654083        2.39296315
 C            0.28613367        2.83190606        2.51502183
 C           -1.05408285        2.53100714        2.27303122
 C            2.46616133        2.53833704        1.67648806
 C            1.15752516        3.09238900        1.37987832
 C            3.86857534        0.68495526        0.86779612
 C            3.20131904        1.96132739        0.65175814
 C            3.31210884       -1.38991207       -0.32569588
 C            3.76187199       -0.07187782       -0.36968151
 C            2.93063156       -1.97852937       -1.51986700
 C            0.87032155       -2.70818250       -0.45189034
 C            1.77019314       -2.84406082       -1.50358845
 C           -1.34316157       -2.09036032        0.33265797
 C           -0.49509409       -2.50571773       -0.71163228
 C           -3.34899347       -0.91099087        0.95104733
 C           -2.67337755       -1.73888152        0.06443085
 C           -3.44523281        1.41231955        1.23110404
 C           -3.97650508        0.30385977        0.45485454
 C           -1.60645069        3.01518963        1.08594767
 C           -2.85825751        2.48386224        0.58053096
 C            0.62772280        2.99949313        0.09440647
 C           -0.72908235        3.24371077       -0.05330010
 C            2.64680351        1.95304615       -0.69310840
 C            3.21187465        0.81335568       -1.38467408
 C            1.30585579        2.26789520       -0.88624839
 C            2.75610033       -1.11350643       -2.66867785
 C            2.51027960        0.23661757       -2.43362770
 C            1.28543894       -2.91142197       -2.86259603
 C            1.93548952       -1.84080501       -3.61091440
 C           -1.00463360       -2.67485850       -2.01340798
 C           -0.13317901       -2.80192033       -3.09388766
 C           -3.17080190       -1.83166410       -1.22806850
 C           -2.30118125       -2.25751892       -2.30073908
 C           -4.14693655        0.44407058       -0.91412864
 C           -3.99012943       -0.74269236       -1.73594727
 C           -2.78657533        2.49432125       -0.87342689
 C           -1.41288789        2.78540473       -1.24407112
 C           -3.48439061        1.54439592       -1.60508271
 C            0.60106998        1.64773193       -1.92771183
 C            1.27123972        0.77863326       -2.80048073
 C           -0.75354971        1.94431476       -2.13420941
 C            0.90833946       -1.11482723       -4.32224829
 C           -0.30260723       -1.90335583       -4.22042343
 C            0.58139794        0.22887399       -3.88048526
 C           -2.52068280       -1.36629271       -3.43748213
 C           -3.42136314       -0.32382980       -3.00017000
 C           -2.87203103        1.00267627       -2.80660324
 C           -1.50999865        1.20073992       -3.04517805
 C           -1.41514522       -0.98193769       -4.17676238
 C           -0.86348976        0.35073767       -3.93897350
