   70
C70 / DATE: 7/ 1/2024 / Origin: Program Fullerene / C70 from database
 C            1.48252532       -0.27795720        5.03211024
 C            0.61182936       -1.43377101        4.93562895
 C            1.19408953       -2.34327130        3.96652491
 C            2.57136426       -0.45786282        4.08481899
 C            2.36616242       -1.70917191        3.39325733
 C            2.66216853        0.74518373        3.29082532
 C            0.72388642        0.88172325        4.59946473
 C            1.55165431        1.61118846        3.66649471
 C           -0.65979344       -0.98837725        4.39266683
 C           -0.56902244        0.43367099        4.12963856
 C            0.13851278       -2.74551271        3.05475655
 C           -0.99223213       -1.86180100        3.28596751
 C            0.48268671       -3.00749187        1.73227887
 C            2.49399115       -1.74411495        2.00964191
 C            1.78830165       -2.73146189        1.32756473
 C            2.97969270        0.64662132        1.93679599
 C            2.90156252       -0.60238734        1.29914528
 C            2.79336000        1.79856503        1.17899021
 C            0.93420186        2.32268945        2.64686003
 C            1.76274306        2.72449231        1.61317769
 C           -1.01210126        0.90735552        2.89863383
 C           -0.40684546        2.04134420        2.34316450
 C           -1.61559793       -1.31746061        2.17058723
 C           -1.76354693        0.06743470        2.07051015
 C           -0.52416468       -2.93243173        0.77255749
 C           -1.59213209       -2.05602373        0.99701978
 C           -0.23099518       -3.34265189       -0.52933519
 C            2.12998064       -2.96924234        0.00621837
 C            1.10789278       -3.46228371       -0.89948409
 C            2.93214405       -0.67089590       -0.10124630
 C            2.85351779       -1.92648584       -0.69629829
 C            2.71639141        1.70926131       -0.26686711
 C            2.62423015        0.46470924       -0.85916236
 C            1.17072855        3.31592053        0.44067730
 C            1.84430898        2.77385498       -0.72605129
 C           -0.97758346        2.59357664        1.19054519
 C           -0.20634089        3.44524708        0.38544625
 C           -2.29230873        0.60157949        0.89606773
 C           -2.09548829        1.95438793        0.64091639
 C           -2.34794291       -1.61046809       -0.07746152
 C           -2.67449475       -0.24950611       -0.15045993
 C           -1.20893287       -3.21041051       -1.51451249
 C           -2.37613655       -2.40409989       -1.21491903
 C           -0.82003104       -2.92153413       -2.89020583
 C            1.51654278       -3.07805989       -2.23751826
 C            2.51151273       -2.02728257       -2.10244736
 C            0.50443246       -2.61663727       -3.16346348
 C            1.95243507        0.34819348       -2.08014037
 C            2.00282113       -0.85102590       -2.77597232
 C            0.84873100       -1.25382998       -3.55477477
 C            1.08598312        2.60351863       -1.88061596
 C            1.04254813        1.33469526       -2.48182273
 C           -0.72298816        3.86360786       -0.83320331
 C            0.00585180        3.46927536       -2.03126493
 C           -2.76411593        2.53774796       -0.42486970
 C           -2.12682045        3.65017692       -1.09430644
 C           -3.22749821        0.29286706       -1.32158550
 C           -3.34507699        1.67729923       -1.44241977
 C           -2.86816734       -1.85677247       -2.45609928
 C           -1.84857878       -2.08186824       -3.46936976
 C           -3.21957804       -0.45412056       -2.50049300
 C           -0.16516484       -0.32546415       -3.77530091
 C            0.03565517        1.00942042       -3.41129770
 C           -1.46802316       -0.77999033       -3.98192991
 C           -2.57715862        0.10377625       -3.68151261
 C           -0.95631510        3.22946804       -3.07979624
 C           -2.27859957        3.47391536       -2.52592638
 C           -3.06183523        2.27425951       -2.73813172
 C           -0.97404908        1.92650101       -3.70592316
 C           -2.35477983        1.46819859       -3.71276455
