   70
C70 / DATE: 7/ 1/2024 / Origin: Program Fullerene / C70 from database
 C            1.05045064       -0.13909659        4.56827386
 C            2.33478477       -0.46708104        3.98923852
 C            2.19558485       -1.74515535        3.30435134
 C            0.20179692       -1.30507914        4.40080429
 C            0.79596504       -2.11402208        3.35442921
 C           -1.14323380       -0.81932284        4.20834407
 C            0.32081777        0.99434179        4.02733156
 C           -1.07567265        0.63147272        4.06770006
 C            0.82575129        1.64813064        2.90461257
 C            2.91172322        0.45880260        3.03732697
 C            2.20531232        1.60265161        2.67250828
 C            2.83120316       -1.61307308        2.00833972
 C            3.51198307       -0.33403891        1.98026813
 C            2.14524435       -2.00324327        0.87186924
 C            0.10462895       -2.30192816        2.15652921
 C            0.81920145       -2.44871343        0.96403322
 C           -1.89719791       -1.31010036        3.07468161
 C           -1.28171227       -2.11000118        2.10973937
 C           -1.92110749        0.99190792        2.94952448
 C           -2.68546148       -0.19086790        2.61480418
 C           -0.04260710        2.08115231        1.88355662
 C           -1.40567661        1.75118540        1.90186295
 C            0.48335025        2.72959230        0.76589851
 C            2.73265571        2.34502526        1.62781261
 C            1.82959381        3.07624548        0.76464565
 C            3.72112264        0.29035712        0.75304410
 C            3.68832902        1.68475728        0.75624427
 C            2.63577210       -1.57610521       -0.35513089
 C            3.39345752       -0.39921204       -0.42561491
 C            2.10520676       -2.14059561       -1.50727426
 C            0.13682309       -2.80261677       -0.20008525
 C            0.83398948       -2.83695232       -1.40884114
 C           -1.94668924       -2.25635650        0.88903347
 C           -1.25966398       -2.78501871       -0.20828637
 C           -3.20095046       -0.27084566        1.33932178
 C           -3.09657827       -1.48630224        0.67682910
 C           -2.13741590        1.78052771        0.70796178
 C           -3.20688700        0.88223477        0.56800917
 C           -0.23318121        2.72469209       -0.43394029
 C           -1.59240535        2.40816321       -0.41905085
 C            0.44287315        2.69777857       -1.66020027
 C            2.51618352        3.26328935       -0.50040935
 C            3.69917090        2.41397079       -0.49337784
 C            1.79456042        2.99709200       -1.72430970
 C            3.58532346        0.21915231       -1.66361609
 C            3.71807928        1.66193578       -1.72890200
 C            2.63210665        2.15574460       -2.55832513
 C            2.09866212       -1.38307752       -2.74778896
 C            2.76054015       -0.16999881       -2.79365049
 C            2.01820921        1.00807237       -3.21062517
 C            0.12621784       -2.61104059       -2.65689874
 C            0.75432343       -1.46689696       -3.28837363
 C           -1.93639887       -2.97375386       -1.41353691
 C           -1.25277918       -2.68719965       -2.66221752
 C           -3.82735381       -1.63842261       -0.49444836
 C           -3.29032316       -2.46862487       -1.55148508
 C           -3.95870885        0.85577280       -0.60057424
 C           -4.38420797       -0.44162114       -1.10854395
 C           -2.25648958        2.33210825       -1.64354067
 C           -3.52992794        1.64829725       -1.72890266
 C           -0.11222209        1.98160589       -2.71268131
 C            0.62616190        0.94091831       -3.27675057
 C            0.01192059       -0.30060682       -3.47608534
 C           -1.48972279        1.96365722       -2.81924806
 C           -1.99810655       -1.62332911       -3.30962124
 C           -3.35265309       -1.70636869       -2.79068897
 C           -4.08947575       -0.48731631       -2.53071951
 C           -3.48673023        0.77705636       -2.89488215
 C           -1.38382454       -0.38105354       -3.50288702
 C           -2.12371568        0.79734678       -3.39741506
