   70
C70 / DATE: 7/ 1/2024 / Origin: Program Fullerene / C70 from database
 C            1.68758727       -0.15188879        5.04147923
 C            0.81303200       -1.30142971        5.18174331
 C            1.29099098       -2.32136780        4.27292068
 C            2.61719462       -0.41994221        3.95447216
 C            2.36066856       -1.75275791        3.46483059
 C            2.52845139        0.67552625        3.01676702
 C            0.86753152        0.97018406        4.63322742
 C            1.53610239        1.61270932        3.51745242
 C           -0.51500525       -0.91796889        4.72731348
 C           -0.48443525        0.49302724        4.40926199
 C            0.13273831       -2.85046078        3.57856700
 C           -0.91617706       -1.84691342        3.68699772
 C            0.35445202       -3.40887067        2.33580470
 C            2.32131771       -1.98037990        2.09125160
 C            1.61247459       -3.09809692        1.67567005
 C            2.53590253        0.40801952        1.65020894
 C            2.49418259       -0.91545756        1.18423836
 C            2.11921614        1.42579277        0.80201096
 C            0.74307644        2.25384181        2.57547438
 C            1.27112554        2.41968251        1.30158186
 C           -1.11936911        0.93490761        3.25696106
 C           -0.63785586        2.10390532        2.67901131
 C           -1.49871730       -1.34343439        2.51978666
 C           -1.79023876        0.02194631        2.43151395
 C           -0.66337964       -3.24477714        1.31936026
 C           -1.47007496       -2.11650262        1.35338898
 C            1.40222923       -3.30240009        0.26797404
 C           -0.01167628       -3.58285040        0.07931815
 C            2.32925328       -1.14929001       -0.19848563
 C            2.00718563       -2.44348382       -0.63642131
 C            2.22303865        1.24256285       -0.56906101
 C            2.18700147       -0.05646290       -1.07898568
 C            1.93935433        2.32349480       -1.39382637
 C            0.57362060        3.22661945        0.40842276
 C            1.07754190        3.37189997       -0.87766432
 C           -1.43038886        2.70635557        1.71701016
 C           -0.78474350        3.44151947        0.64343529
 C           -2.40815115        0.51194683        1.27856846
 C           -2.46436839        1.89543520        1.10537023
 C           -1.89472985       -1.55780325        0.14485030
 C           -2.53970380       -0.32132640        0.16490852
 C           -0.56717623       -3.16378414       -1.11491428
 C           -1.55074225       -2.16191768       -1.08244424
 C            1.63804467       -2.63873524       -1.95970482
 C            0.30913909       -3.18255130       -2.18778062
 C            1.89789230       -0.26714434       -2.43720002
 C            1.81001666       -1.56976811       -2.91266619
 C            1.59007259        2.09780331       -2.78054396
 C            1.48070490        0.79715804       -3.25084726
 C            0.18913848        3.79182539       -1.94604064
 C            0.55723599        3.05784623       -3.14151079
 C           -1.72390021        3.47067549       -0.46839426
 C           -2.73669966        2.45681775       -0.20695445
 C           -1.24277663        3.65697813       -1.75722605
 C           -3.10917519        0.17546677       -1.00158820
 C           -3.14641771        1.61125824       -1.22527296
 C           -1.98513115       -1.58729819       -2.29091637
 C           -2.80827746       -0.46414161       -2.26669567
 C           -0.14919343       -2.70957237       -3.46545252
 C            0.90819191       -1.87431188       -4.00961294
 C           -1.36862594       -1.93636776       -3.49568774
 C            0.61315595        0.56810726       -4.32206481
 C            0.26816608       -0.78206410       -4.70327558
 C           -1.16987142       -0.91995236       -4.51242034
 C           -0.66179003        2.56822177       -3.76179793
 C           -1.76258347        2.84632205       -2.84855320
 C           -2.71730849        1.86529654       -2.59054093
 C           -2.63759060        0.58326896       -3.26864509
 C           -0.60848779        1.34726770       -4.41928228
 C           -1.71226565        0.40778417       -4.28867554
