   70
C70 / DATE: 7/ 1/2024 / Origin: Program Fullerene / C70 from database
 C            1.64841838       -0.29314885        4.93660716
 C            0.78146904       -1.45912998        4.91629576
 C            1.27057295       -2.35647783        3.88705661
 C            2.64545040       -0.46015712        3.89638427
 C            2.44977760       -1.76526006        3.28802028
 C            2.60103251        0.70989056        3.02915758
 C            0.84689264        0.85936500        4.57760946
 C            1.50324542        1.54672780        3.47164073
 C           -0.54630096       -1.02461268        4.51600171
 C           -0.52318024        0.41548925        4.37930622
 C            0.16076267       -2.67547053        3.01245721
 C           -0.95240395       -1.80875341        3.36435950
 C            0.42161777       -2.86551104        1.66546040
 C            2.59180009       -1.85383106        1.90987384
 C            1.72320662       -2.67623705        1.18717809
 C            2.77996716        0.50965505        1.66643395
 C            3.14869975       -0.76583109        1.25049452
 C            2.14345909        1.35755005        0.74996572
 C            0.68822455        2.14013693        2.51449004
 C            1.10910997        2.19163633        1.17830795
 C           -1.21545431        0.98373114        3.32218544
 C           -0.67696809        2.13605386        2.76964008
 C           -1.65147999       -1.17293650        2.33583488
 C           -1.99507530        0.17345973        2.48849246
 C           -0.63289040       -2.70096317        0.78154001
 C           -1.58304370       -1.71043934        1.04748627
 C           -0.44801703       -3.14807820       -0.51269239
 C            1.96174724       -2.83106083       -0.18370495
 C            0.91438847       -3.26541181       -1.00186076
 C            3.50568469       -0.93828923       -0.07005455
 C            3.03436436       -2.13406380       -0.74252001
 C            2.33970768        1.13499051       -0.61513627
 C            3.27221986        0.16353453       -0.97866140
 C            1.37734386        1.57001346       -1.54185971
 C            0.25915365        2.78633766        0.23834114
 C            0.32963942        2.40332036       -1.11309919
 C           -1.49026180        2.85903910        1.92820823
 C           -0.89372340        3.39951122        0.72741741
 C           -2.71261187        0.81160706        1.47403946
 C           -2.70354291        2.20770281        1.49196687
 C           -2.19966508       -1.02998599       -0.00755084
 C           -2.90846740        0.14437684        0.25669864
 C           -1.26305309       -2.60355013       -1.57665127
 C           -2.06465842       -1.49531290       -1.32378081
 C            0.89767214       -2.95608259       -2.42604412
 C           -0.47790946       -2.65580372       -2.79712058
 C            3.06220075       -1.84417901       -2.16375556
 C            3.24514815       -0.40451793       -2.30543354
 C            1.93683735       -2.22913745       -2.99126714
 C            1.44927442        1.15311021       -2.88416813
 C            2.25221247        0.07115567       -3.23181071
 C            1.63392644       -1.09411802       -3.84418355
 C            0.41522340        1.46131446       -3.75695692
 C           -0.66167007        2.81893914       -2.02426892
 C           -0.69288296        2.26492916       -3.29947374
 C           -1.99622589        3.68429338       -0.16170828
 C           -3.15673490        2.95384169        0.34071666
 C           -1.85597754        3.36109943       -1.55668682
 C           -3.58490400        0.78070585       -0.78395324
 C           -3.72961360        2.22363484       -0.76394174
 C           -3.09787020        2.73132299       -1.96411861
 C           -2.51058875       -0.72167235       -2.40021428
 C           -1.92722720        1.63547501       -3.76351596
 C           -3.28797061        0.40853102       -2.15573942
 C           -3.00997400        1.63521552       -2.90117021
 C           -0.73785673       -1.72828915       -3.79549715
 C            0.35822093       -0.95462456       -4.36997746
 C           -0.13165985        0.39536081       -4.58117296
 C           -1.87493436       -0.83584707       -3.63975506
 C           -1.56387385        0.37572602       -4.37016232
