   70
C70 / DATE: 7/ 1/2024 / Origin: Program Fullerene / C70 from database
 C            1.54970963       -0.16890840        5.00840699
 C            0.69508204       -1.33907100        5.09473645
 C            1.23606032       -2.35035720        4.20532458
 C            2.60135361       -0.45710162        4.05038907
 C            2.37777127       -1.78070677        3.50819981
 C            2.65619904        0.64911449        3.12263985
 C            0.76068102        0.92257128        4.46259942
 C            1.50828215        1.50434930        3.36249754
 C           -0.61212020       -0.97348791        4.58009736
 C           -0.56889072        0.42236718        4.18391127
 C            0.13778303       -2.86689741        3.41060423
 C           -0.98624033       -1.95564569        3.57590485
 C            0.42613889       -3.32485936        2.13500273
 C            2.47245664       -1.96051096        2.12859307
 C            1.70069068       -2.95626416        1.53482114
 C            2.97269607        0.39247869        1.80184452
 C            2.97048529       -0.92627757        1.32733161
 C            2.70286987        1.40307168        0.89241199
 C            0.80754206        1.97109139        2.24804754
 C            1.50035871        2.10086516        1.03813462
 C           -1.15074393        0.77122283        2.97369824
 C           -0.57701444        1.78535269        2.20568444
 C           -1.66576445       -1.51294868        2.44211322
 C           -1.96918465       -0.15430156        2.33248848
 C           -0.57998746       -3.18314897        1.09908198
 C           -1.62946999       -2.28575899        1.27966378
 C            1.51743073       -2.95183422        0.09379655
 C            0.11235093       -3.19284995       -0.17569213
 C            3.06487206       -1.11811681       -0.05493623
 C            2.18409269       -2.01275715       -0.67676261
 C            3.27821204        1.28099092       -0.35830316
 C            3.58522120       -0.06478639       -0.80412689
 C            2.69147524        1.98416059       -1.47672498
 C            0.79616745        2.52501302       -0.09456135
 C            1.38281797        2.44649266       -1.36577315
 C           -1.27457731        2.20511570        1.07763234
 C           -0.56631870        2.78813606        0.02736920
 C           -2.68593813        0.28010470        1.22524970
 C           -2.50002104        1.59639339        0.80987361
 C           -2.30065860       -1.81590877        0.15126287
 C           -3.07742529       -0.66712336        0.28523385
 C           -0.48734425       -2.54519442       -1.24675829
 C           -1.81736204       -2.16389682       -1.11419649
 C            1.67729196       -1.71985329       -1.94524678
 C            0.30986898       -1.91133620       -2.20658496
 C            3.44818660       -0.08583340       -2.24659119
 C            3.09984869        1.26220309       -2.66586692
 C            2.46490223       -0.97863957       -2.81749801
 C            2.15926876        1.14319829       -3.75544056
 C            1.84053110       -0.26946977       -3.91074136
 C            0.59612693        2.59100913       -2.51881895
 C            0.90079876        1.85380758       -3.66118357
 C           -1.26447686        3.26296841       -1.07523678
 C           -0.71128716        3.04320712       -2.39670188
 C           -3.29139962        2.09317495       -0.21772347
 C           -2.69697185        3.02778932       -1.15320294
 C           -3.87913715       -0.26417323       -0.77719016
 C           -4.09945151        1.15768559       -0.97912553
 C           -2.48241053       -1.71122652       -2.24273623
 C           -3.64776190       -0.86143642       -2.07712508
 C           -0.30619286       -1.28823588       -3.30594063
 C            0.40737510       -0.37522008       -4.07279610
 C           -0.11635048        0.97472973       -4.20568783
 C           -1.69454936       -1.18011029       -3.33955629
 C           -1.74364097        2.40201196       -3.19980983
 C           -3.00519631        2.57064319       -2.49913865
 C           -3.91390045        1.44812520       -2.39214781
 C           -3.56629822        0.20994433       -3.05687768
 C           -1.44486789        1.20819025       -3.86456702
 C           -2.28004509        0.09666891       -3.72327544
