   70
C70 / DATE: 7/ 1/2024 / Origin: Program Fullerene / C70 from database
 C            1.37696807       -0.14779565        4.26295581
 C            2.61591132       -0.40086126        3.56413861
 C            2.48046865       -1.65968692        2.84528000
 C            0.52401793       -1.30992833        4.07712480
 C            1.13816103       -2.14828663        3.06501078
 C           -0.83011665       -0.83336097        3.84366314
 C            0.60140089        1.02412097        3.90149668
 C           -0.79365479        0.61930886        3.90493858
 C            1.06322385        1.88953893        2.90489719
 C            3.08262817        0.58412450        2.61459352
 C            2.38901347        1.77884188        2.44094393
 C            2.92259992       -1.44216990        1.48104993
 C            3.52920055       -0.12780676        1.43091941
 C            2.10568302       -1.83434613        0.42678970
 C            0.36571288       -2.51421556        1.97299051
 C            0.91371206       -2.51775562        0.68448374
 C           -1.59647256       -1.44860589        2.85434228
 C           -1.01501784       -2.48395105        2.11280907
 C           -2.69889078       -0.76175372        2.33293387
 C           -1.69866750        1.34019598        3.14511810
 C           -2.71159261        0.62945504        2.38246310
 C            0.14042895        2.72787979        2.25609411
 C           -1.21907236        2.43647415        2.32215447
 C            0.55386050        3.54669384        1.21219297
 C            2.82697295        2.58932659        1.40000283
 C            1.95677428        3.62318554        0.89119078
 C            3.53432520        0.55580821        0.22257519
 C            3.47191474        1.95090107        0.26170561
 C            2.29952094       -1.24732556       -0.82157745
 C            3.11836685       -0.10941722       -0.93216133
 C            1.54806447       -1.70486476       -1.90931705
 C            0.10728950       -2.91695172       -0.38608083
 C            0.42418618       -2.50607706       -1.68516857
 C           -1.77161217       -3.16171027        1.17255444
 C           -1.15771891       -3.44507206       -0.11328860
 C           -3.47697997       -1.37462627        1.35547133
 C           -3.12423236       -2.71205997        0.92966229
 C           -3.81271440       -0.61069099        0.16235525
 C           -2.94952194        1.36717819        1.15171755
 C           -1.98999621        2.44808879        1.08827116
 C           -3.25372621        0.65466756        0.00128423
 C           -0.19519584        3.51025297       -0.03739459
 C           -1.33257721        2.71714496       -0.10614741
 C            2.08222179        3.64980106       -0.55614989
 C            3.11090169        2.69761949       -0.93499411
 C            0.75275329        3.50227387       -1.12953282
 C            3.19424882        0.58045266       -2.13583086
 C            2.95115806        2.00964293       -2.12706809
 C            1.73638391       -1.14989793       -3.17239796
 C            2.52603989        0.05429352       -3.30515469
 C            0.58099267       -0.95212700       -4.02293587
 C           -0.49520851       -2.70138408       -2.72081433
 C           -0.50845913       -1.78369860       -3.84890934
 C           -2.20509429       -3.39531455       -1.12042948
 C           -3.38392396       -2.81795128       -0.49463055
 C           -3.87066564       -1.52876295       -0.96081860
 C           -1.88074813       -3.00192280       -2.40794157
 C           -1.82278771       -1.16860517       -3.86877607
 C           -3.47793345       -1.08427952       -2.21438958
 C           -2.69695072       -1.98107087       -3.04739886
 C           -2.60447941        0.97455263       -1.19506307
 C           -1.51658244        1.85735880       -1.19509435
 C           -2.89865641        0.24594421       -2.34064504
 C           -1.93886644        0.21289393       -3.42676662
 C            0.57779397        2.61404211       -2.18326155
 C            1.71839316        2.20111395       -2.86939384
 C            1.63145833        1.09678594       -3.79524891
 C            0.34440775        0.48027270       -4.01379315
 C           -0.59549378        1.84763545       -2.25976526
 C           -0.77354939        0.96646399       -3.33783467
