   70
C70 / DATE: 7/ 1/2024 / Origin: Program Fullerene / C70 from database
 C            1.33068592       -0.08684732        4.16264915
 C            2.47064811       -0.20157460        3.26816593
 C            2.48215446       -1.56994206        2.77907951
 C            0.46510400       -1.23145469        3.91783726
 C            1.15769027       -2.11701550        3.02005922
 C           -0.82225859       -0.72579196        3.50913464
 C            0.50414325        1.10238037        4.10674628
 C           -0.87142884        0.65978006        3.93684369
 C            0.96053608        2.20204331        3.39339532
 C            2.77494366        0.83931019        2.39495887
 C            2.10658452        2.06003827        2.50397979
 C            3.44329911        0.54842002        1.20872034
 C            3.09444072       -1.87055325        1.56587769
 C            3.68268759       -0.83710711        0.83098789
 C            2.64725574       -3.00997644        0.90019902
 C            0.47693203       -2.66388924        1.94229501
 C            1.25476284       -3.40281731        1.06887487
 C           -1.33416781       -1.07187688        2.25550304
 C           -0.67512277       -2.01949828        1.45726958
 C           -2.32934447       -0.26886222        1.70124564
 C           -1.78795915        1.49721886        3.32596710
 C           -2.67916606        0.92627051        2.33654209
 C            0.00140889        3.08784147        2.75127351
 C           -1.35595543        2.78920519        2.81088411
 C            1.82433413        2.81811822        1.29597738
 C            0.58719014        3.54993452        1.50165849
 C            3.09948654        1.28482833       -0.00010213
 C            2.09732115        2.24020872        0.05931620
 C            3.70434969       -0.88419661       -0.62788403
 C            3.13757061        0.36107722       -1.11431090
 C            2.99741586       -3.21194567       -0.49061832
 C            3.38632964       -2.06318496       -1.28251651
 C            0.73074161       -3.76176458       -0.22502376
 C            1.85746459       -3.83575352       -1.13809896
 C           -1.09826775       -2.22829895        0.13116261
 C           -0.44746098       -3.17727053       -0.67182279
 C           -2.80549080       -0.52356675        0.41596853
 C           -2.15687336       -1.46660102       -0.39679583
 C           -3.72774082        0.36895782       -0.13592976
 C           -3.18076319        2.03275574        1.54745690
 C           -2.21765562        3.11692199        1.68397446
 C           -3.72487447        1.75084660        0.30695324
 C           -0.22798478        3.81071366        0.41013162
 C           -1.67155908        3.69983369        0.54448298
 C            1.14609486        2.30614089       -0.96216374
 C            0.13897405        3.26328461       -0.88496555
 C            2.07610441        0.32470025       -2.01233313
 C            1.05522959        1.28058459       -1.91395767
 C            2.50868243       -2.01325579       -2.44157163
 C            1.70841869       -3.23225660       -2.44401961
 C            1.91241954       -0.80480793       -2.81790103
 C           -0.69553817       -3.20752017       -2.04008247
 C            0.43028121       -3.16348047       -2.97016271
 C           -2.51115921       -1.58580687       -1.75354516
 C           -1.75425023       -2.39392126       -2.59073878
 C           -3.91998808        0.40559989       -1.56438776
 C           -3.20210254       -0.54813716       -2.37216660
 C           -3.34318109        2.55927448       -0.84047856
 C           -2.20666620        3.35413730       -0.76124208
 C           -1.07998339        3.07984889       -1.64666423
 C           -3.53037410        1.73382620       -2.01768522
 C           -0.02742351        1.24850204       -2.80418667
 C           -2.52850735        0.19940400       -3.42281511
 C           -1.15827397        2.03329225       -2.55815598
 C           -2.41392534        1.55369387       -2.92621392
 C            0.86909872       -0.84382253       -3.73528360
 C            0.15705481       -2.09675815       -3.90788406
 C           -1.25729096       -1.80964687       -3.82550350
 C           -0.11764314        0.22164277       -3.74194583
 C           -1.41745818       -0.38143354       -4.00641437
