   70
C70 / DATE: 7/ 1/2024 / Origin: Program Fullerene / C70 from database
 C            1.52522914       -0.10733336        5.01698225
 C            0.70073887       -1.28774967        5.18066453
 C            1.23045172       -2.31657582        4.30522355
 C            2.52412417       -0.39684111        3.99999082
 C            2.27792498       -1.72483560        3.48748184
 C            2.51023759        0.69827207        3.06135178
 C            0.67905943        0.95008529        4.49412417
 C            1.39648651        1.56390637        3.40284195
 C           -0.63367553       -0.96752773        4.70193275
 C           -0.62394919        0.39282866        4.20119864
 C            0.10272297       -2.92287155        3.62772950
 C           -1.03062717       -2.02181088        3.79338747
 C            0.32495154       -3.45213779        2.36501342
 C            2.23213304       -1.92074743        2.10611087
 C            1.49840219       -3.00400545        1.62797986
 C            2.70527229        0.43598485        1.71022939
 C            2.56000062       -0.87124962        1.22876845
 C            2.41513955        1.47471134        0.83522341
 C            0.67138921        2.07381691        2.33827760
 C            1.39111456        2.35673876        1.19127678
 C           -1.17878315        0.64688453        2.94776583
 C           -0.65975000        1.68297912        2.16689273
 C           -1.76828020       -1.68756024        2.66372970
 C           -1.95194272       -0.33565954        2.32979990
 C           -0.77797764       -3.46689435        1.42011809
 C           -1.87481018       -2.64617920        1.65998286
 C            1.18320844       -3.08706818        0.21728478
 C           -0.20424536       -3.48973717        0.08373263
 C            2.41894955       -1.05350080       -0.15639687
 C            1.66532301       -2.12560606       -0.64602284
 C            2.71697361        1.30964028       -0.51178657
 C            2.71346348        0.00957821       -1.02400255
 C            2.49302589        2.39858082       -1.35223390
 C            0.74453245        3.05689173        0.18884929
 C            1.49627458        3.36376626       -0.93731552
 C           -1.27148213        1.98304961        0.94541549
 C           -0.64051681        2.89008809        0.08870743
 C           -2.62564057       -0.02106170        1.14866894
 C           -2.27292691        1.13990825        0.43953157
 C           -2.73572217       -2.39173336        0.60689346
 C           -3.28596080       -1.05777479        0.49638634
 C           -0.96181028       -2.98147989       -0.97202086
 C           -2.31730490       -2.77089273       -0.73126314
 C            1.05856002       -2.01331787       -1.88728247
 C           -0.31827256       -2.26798996       -1.99920500
 C            2.58067107       -0.19833894       -2.39975362
 C            1.72164937       -1.27620330       -2.85236789
 C            2.35559390        2.21072780       -2.78420509
 C            2.38932029        0.92664567       -3.30143063
 C            0.85090321        3.89420773       -2.11708612
 C            1.34779480        3.14914051       -3.26218107
 C           -1.32255405        3.31907784       -1.04297192
 C           -0.59320647        3.88688047       -2.16482696
 C           -2.81883875        1.38804445       -0.83442577
 C           -2.35838077        2.46659359       -1.58383790
 C           -3.70342550       -0.89453036       -0.87686385
 C           -3.09168709       -1.96779175       -1.64886375
 C           -3.40281956        0.34765570       -1.54621303
 C           -1.07922742       -1.64000684       -3.00402668
 C           -2.41982182       -1.36449398       -2.77549906
 C           -2.86444603        0.01530464       -2.85442086
 C            0.99465521       -0.82461819       -4.01398351
 C            1.40329684        0.53937154       -4.29765737
 C           -0.44856828       -0.86514461       -3.96979507
 C            0.19876573        2.65355841       -4.00368126
 C           -0.99582345        3.17185404       -3.36534050
 C           -2.05254269        2.25052972       -2.99299681
 C           -2.04909221        0.94774644       -3.48937066
 C            0.20312868        1.34374449       -4.46375683
 C           -0.94735615        0.48247566       -4.21646213
