   70
C70 / DATE: 7/ 1/2024 / Origin: Program Fullerene / C70 from database
 C            1.04932850       -0.13662365        4.66746209
 C            2.29508597       -0.39263458        3.98095056
 C            2.24593246       -1.75760014        3.48401540
 C            0.23270037       -1.33636153        4.55197425
 C            0.87241936       -2.19365955        3.57469408
 C           -1.12876612       -0.91336192        4.31640502
 C            0.23205449        0.97795307        4.23174909
 C           -1.14098143        0.54019652        4.32595709
 C            0.59983090        1.72226431        3.11262749
 C            2.65905787        0.45471251        2.86378200
 C            1.81903869        1.48236116        2.45959270
 C            2.86667477       -1.76718160        2.17563202
 C            3.23439469       -0.39726294        1.84355355
 C            2.30866808       -2.54661176        1.16910185
 C            0.21686589       -2.51688869        2.38846117
 C            0.97850319       -2.97491573        1.30775146
 C           -1.78649121       -1.33672670        3.09677772
 C           -1.10453860       -2.10029299        2.16116276
 C           -2.05631172        0.97288103        3.29052235
 C           -2.56645372       -0.21576497        2.61934429
 C           -0.37853317        2.48609695        2.46444982
 C           -1.71826768        2.06760133        2.50155470
 C            0.03878401        3.39542644        1.49335785
 C            2.01986059        2.02115286        1.19499756
 C            1.33741258        3.18739728        0.88187703
 C            3.16584005       -0.00322681        0.50552932
 C            2.52308587        1.20028516        0.17264519
 C            2.82781433       -2.34711935       -0.10410489
 C            3.26985802       -1.00692706       -0.45609475
 C            2.17048694       -2.92338609       -1.26025311
 C            0.29995026       -3.49749763        0.20912466
 C            0.94386882       -3.54602635       -1.09206836
 C           -1.62270570       -2.16419524        0.87181250
 C           -1.07924899       -3.09529433        0.00412630
 C           -2.86722927       -0.12201962        1.26008012
 C           -2.37298866       -1.09047074        0.37108486
 C           -2.53316970        2.29321425        1.39838185
 C           -3.16842826        1.14340931        0.77586907
 C           -0.87692700        3.81523526        0.44583758
 C           -2.11399396        3.20324283        0.34946273
 C            1.26456097        3.62064044       -0.49503828
 C           -0.10407018        4.03230646       -0.76115403
 C            2.19748431        1.46401594       -1.16770023
 C            1.65911153        2.68950096       -1.52937686
 C            2.84024833       -0.74963010       -1.81570864
 C            2.36738930       -2.00550535       -2.37158738
 C            2.15332894        0.42412527       -2.09150081
 C            1.44205051       -1.96812831       -3.40338962
 C           -0.08803947       -3.37678611       -2.10077209
 C           -1.30786375       -2.96888097       -1.41730591
 C            0.23373313       -2.77757619       -3.31138237
 C           -2.48725998       -0.89593908       -1.02004482
 C           -2.03941174       -1.89182155       -1.90660845
 C           -3.20521237        1.37200532       -0.64768055
 C           -2.55473284        2.64565400       -0.92286962
 C           -2.99078030        0.31802408       -1.51908708
 C           -0.52365619        3.39348288       -1.99549580
 C            0.63920235        2.72082518       -2.55915472
 C           -1.76958085        2.76994690       -2.07251586
 C            1.26060252        0.47445586       -3.16993573
 C            1.05283036       -0.67489838       -3.93740729
 C            0.43398379        1.59398232       -3.34793590
 C           -0.81459877       -2.06825746       -4.02186656
 C           -1.98935593       -1.64644624       -3.27863716
 C           -0.22074884       -0.87353942       -4.59801699
 C           -2.76125782        0.66737424       -2.84123850
 C           -1.98071161        1.86419078       -3.10988660
 C           -0.83804858        1.43158350       -3.89169835
 C           -2.35304885       -0.34450378       -3.78538194
 C           -1.20862948        0.17841854       -4.51880884
