   70
C70 / DATE: 7/ 1/2024 / Origin: Program Fullerene / C70 from database
 C            1.09930361        0.08870351        4.57908981
 C            2.45158315       -0.18222755        4.14784045
 C            2.49155393       -1.58010292        3.75341655
 C            0.31252316       -1.10796517        4.31274017
 C            1.12257594       -1.97619472        3.49145850
 C           -0.95968052       -0.67516778        3.78922231
 C            0.39113779        1.19698021        3.97166194
 C           -0.98946494        0.77756689        3.83459191
 C            0.97170081        1.90184376        2.92194778
 C            2.98290473        0.57749330        3.03236356
 C            2.12591083        1.40259099        2.30452665
 C            3.44789621       -1.68252212        2.68026536
 C            3.85759991       -0.32831270        2.32426595
 C            3.03223349       -2.31569652        1.44837204
 C            0.71972513       -2.23510497        2.17710699
 C            1.67848987       -2.58378979        1.21609742
 C           -1.47424238       -1.29378735        2.66123254
 C           -0.59843696       -1.95055531        1.77946699
 C           -2.63515182       -0.73141530        2.16068227
 C           -1.80509762        1.44360647        2.92109097
 C           -2.81446504        0.70673669        2.30525479
 C            0.14999126        2.77107391        2.22167480
 C           -1.29248061        2.56626843        2.27005417
 C            0.50193833        3.15404949        0.87003842
 C            2.30883222        1.56126156        0.91960060
 C            1.55214218        2.51309234        0.22725158
 C            3.89620887       -0.26955008        0.87788783
 C            3.78173774       -1.63814274        0.41418983
 C            3.17183960        0.71091826        0.20711302
 C            3.38757545       -1.84742618       -0.89141977
 C            1.28054801       -2.81254753       -0.10152698
 C            2.23684734       -2.69791800       -1.11245389
 C           -0.98443053       -2.18612512        0.45012984
 C           -0.07348364       -2.76506408       -0.43764618
 C           -3.10332155       -1.10542439        0.84926368
 C           -2.25225403       -1.79070035       -0.00459137
 C           -3.44064687        1.19335131        1.08703607
 C           -3.86477178        0.01810731        0.33734839
 C           -1.84020215        2.98503192        0.98836821
 C           -0.73296719        3.40748294        0.14353161
 C           -2.90014556        2.29075164        0.41714084
 C           -0.78808761        3.16353933       -1.22671132
 C            1.59915589        2.55803947       -1.16166576
 C            0.38807360        2.86409370       -1.91036923
 C            3.00943810        0.56331295       -1.17157871
 C            3.19047118       -0.69149860       -1.74935174
 C            2.32604622        1.53491133       -1.88535810
 C            1.80873278       -2.44291608       -2.47080797
 C            2.30500370       -1.11623451       -2.82409282
 C           -0.45044992       -3.00007746       -1.76077184
 C            0.52005920       -2.79046669       -2.82562283
 C           -2.55398238       -1.81338605       -1.36748973
 C           -1.73412341       -2.51971899       -2.23559808
 C           -4.05593181        0.12010440       -1.02964292
 C           -3.44497015       -0.87378985       -1.89748983
 C           -3.11954620        2.43219445       -0.94967264
 C           -2.01352263        2.83968637       -1.80483654
 C           -3.87753243        1.41556582       -1.65611981
 C           -3.13154541       -0.22081323       -3.16137521
 C           -2.04971646        2.01731708       -3.00581497
 C           -3.25183181        1.20653088       -2.95034261
 C            0.34537683        1.98855034       -3.07278926
 C            1.53428497        1.15126022       -3.04633105
 C            1.44480047       -0.18903347       -3.41351422
 C           -0.87035517        1.45341320       -3.48554125
 C           -0.12560614       -2.01597460       -3.86379185
 C           -1.54605120       -2.00857428       -3.58233223
 C           -2.05087709       -0.68573880       -3.89225344
 C            0.29843723       -0.64130434       -4.06355194
 C           -0.89730670        0.18983713       -4.08086774
