   70
C70 / DATE: 7/ 1/2024 / Origin: Program Fullerene / C70 from database
 C            1.23368411        0.11868215        4.76970910
 C            2.48456170        0.01600878        4.04926000
 C            2.54388870       -1.32456484        3.49998423
 C            0.42348250       -1.03496230        4.39697538
 C            1.19576749       -1.83957871        3.46893197
 C           -0.87041205       -0.54375149        3.97570128
 C            0.42715290        1.30413506        4.56866194
 C           -0.93178962        0.86732551        4.30077742
 C            0.78484192        2.22079016        3.50106276
 C            2.74532207        0.93685426        2.95186979
 C            1.77801645        1.86404466        2.58533085
 C            3.24087400       -1.23380086        2.24328076
 C            3.40919021        0.17469699        1.91742245
 C            2.84821865       -2.06118361        1.20675661
 C            0.64861257       -2.17128884        2.22932431
 C            1.50252790       -2.47543913        1.16001304
 C           -1.37920343       -0.94451954        2.75023826
 C           -0.69481067       -1.88601757        1.97120396
 C           -2.34235030       -0.14290520        2.14799921
 C           -1.49029305        1.77528647        3.30867676
 C           -0.46511082        2.76281266        3.00970031
 C           -2.23322754        1.24492533        2.25325837
 C           -0.47545288        3.35226277        1.76024027
 C            1.63552250        2.21594527        1.23881405
 C            0.68071333        3.16709170        0.89579099
 C            3.26233239        0.54271012        0.58039352
 C            2.24573192        1.44705268        0.23481610
 C            3.49590633       -1.80815771        0.01199628
 C            3.66103018       -0.40996500       -0.35206421
 C            3.09205276       -2.53681969       -1.16097642
 C            0.94042310       -2.88172475       -0.06036650
 C            1.77079155       -3.11512077       -1.15964353
 C           -1.26227027       -2.29310116        0.76305792
 C           -0.44294138       -2.79275640       -0.25371004
 C           -3.07923841       -0.68708408        1.11275870
 C           -2.56334024       -1.88013935        0.46847401
 C           -3.58890338        0.18933863        0.07667181
 C           -2.44064745        2.03356639        1.11695417
 C           -1.64201896        3.16122428        0.92417952
 C           -3.15017405        1.51192966        0.03080620
 C            0.20707271        3.24432511       -0.47304479
 C           -1.22293998        3.50447642       -0.41679355
 C            1.74484919        1.48310802       -1.08356369
 C            0.69225627        2.34792352       -1.41781709
 C            3.26257715       -0.27471003       -1.73306039
 C            3.16301147       -1.61816075       -2.28124661
 C            2.29425332        0.65840644       -2.07376731
 C            1.24992691       -2.95053077       -2.50543023
 C            2.05251787       -1.92502790       -3.16188035
 C           -0.97994292       -3.03678690       -1.52029954
 C           -0.12328930       -2.96735751       -2.69004811
 C           -3.04151195       -1.87851605       -0.90238724
 C           -3.69062195       -0.59813901       -1.14462463
 C           -2.26003595       -2.45810321       -1.88839729
 C           -3.55920748        0.02538032       -2.37816556
 C           -3.11716057        2.18618490       -1.19066085
 C           -2.01246531        3.08788343       -1.47121452
 C           -3.40334564        1.46641000       -2.42158908
 C           -0.04124416        2.14708018       -2.59214310
 C           -1.36165008        2.58816826       -2.66534723
 C           -2.33940751        1.77321846       -3.36467843
 C            1.61481208        0.48023114       -3.27619896
 C            1.41454073       -0.86756628       -3.79317840
 C            0.40925914        1.23592968       -3.53800120
 C           -0.73762270       -2.03901892       -3.62803024
 C           -2.09723067       -1.79165310       -3.17260442
 C           -2.68608012       -0.54930266       -3.39062447
 C           -1.90150811        0.53062032       -3.97239692
 C            0.01439644       -0.99450511       -4.15546223
 C           -0.54266961        0.34622944       -4.19167514
