   70
C70 / DATE: 7/ 1/2024 / Origin: Program Fullerene / C70 from database
 C            1.28543440       -0.04597714        4.10897171
 C            2.61736078       -0.38496186        3.66819157
 C            2.61246996       -1.77884591        3.25293876
 C            0.46343974       -1.24278903        4.00227635
 C            1.24451305       -2.26346099        3.33722663
 C           -0.80207128       -0.85485904        3.41606273
 C            0.58398001        1.03095360        3.43355934
 C           -0.78026160        0.58669322        3.24528967
 C            1.20458736        1.74060534        2.40442426
 C            3.19989916        0.38995466        2.59547757
 C            2.56984241        1.54609726        2.14017112
 C            3.31360024       -1.87336805        1.98140800
 C            3.72332508       -0.53216500        1.60324065
 C            2.81221728       -2.72268110        1.00836068
 C            0.69724760       -2.92014478        2.24013361
 C            1.56012419       -3.41214683        1.26276612
 C           -1.35342879       -1.63144310        2.39864684
 C           -0.65952022       -2.75628038        1.93578034
 C           -2.34372447       -1.05383886        1.59760108
 C           -1.51310951        1.11768475        2.20075134
 C           -2.51592067        0.33664483        1.64765414
 C            0.39872985        2.41066815        1.47174456
 C           -0.98453785        2.16471789        1.44460665
 C            0.99155547        3.23023330        0.50587728
 C            3.11686600        2.12072425        1.00041074
 C            2.35139654        3.09373807        0.25202223
 C            3.68444383       -0.13260343        0.26963556
 C            3.76348801        1.23633489        0.03999152
 C            2.77443967       -2.27177353       -0.37310574
 C            3.01436795       -0.93455328       -0.66534045
 C            1.02731383       -3.80232308       -0.02597524
 C            1.66422365       -2.95069778       -1.02278674
 C           -1.20852561       -3.50887896        0.90095941
 C           -0.33100938       -4.04310356       -0.13238308
 C           -2.97001741       -1.81872662        0.60454031
 C           -2.42596681       -3.05063181        0.25492855
 C           -3.81875799       -1.20221470       -0.31394531
 C           -3.44007501        0.96629640        0.83268018
 C           -4.19446346        0.18148002       -0.11593064
 C           -1.79638561        2.76454850        0.47357460
 C           -3.04975612        2.20824100        0.18649433
 C            0.20050335        3.83347401       -0.46985771
 C           -1.23789274        3.65923992       -0.43328167
 C            0.62327028        3.77271010       -1.86735007
 C            2.79456866        3.00817033       -1.12710180
 C            3.48249203        1.74170676       -1.28566314
 C            1.79170417        3.09304505       -2.16532707
 C            2.32053842       -0.34569573       -1.72798717
 C            2.68565728        0.91774730       -2.16650718
 C            1.68151824        1.77002484       -2.77464729
 C            0.87018475       -2.25816059       -1.93768015
 C            1.11868940       -0.90298247       -2.16752492
 C           -0.96007889       -3.79195967       -1.41313030
 C           -2.32449167       -3.38271215       -1.15551154
 C           -0.36067204       -2.80209636       -2.29109598
 C           -3.57054400       -1.38784860       -1.73803539
 C           -2.66346722       -2.35934388       -2.12440351
 C           -1.42292168       -1.92873856       -2.75528142
 C           -4.11111008        0.84801142       -1.40354671
 C           -3.51167813        2.15057497       -1.19602702
 C           -3.45440011       -0.06498076       -2.31791070
 C           -1.70432095        3.64291259       -1.80795545
 C           -0.54617257        3.46340984       -2.65882442
 C           -2.67734303        2.64122531       -2.18658200
 C            0.41640287        1.24928777       -3.05160360
 C            0.13251514       -0.08624222       -2.74255843
 C           -1.17228442       -0.56730664       -2.89957626
 C           -2.24814419        0.32474884       -2.89748865
 C           -0.63747639        2.13994393       -3.24597899
 C           -2.00238077        1.68468737       -3.06049267
