   70
C70 / DATE: 7/ 1/2024 / Origin: Program Fullerene / C70 from database
 C            1.38511839       -0.17905825        4.42100158
 C            2.61743381       -0.48902894        3.74167909
 C            2.55240565       -1.87437242        3.29615093
 C            0.54777102       -1.37076258        4.40048408
 C            1.23253575       -2.38514554        3.61965740
 C           -0.78545428       -0.94862106        4.00045167
 C            0.57602968        0.91708602        3.92750949
 C           -0.79935599        0.49808196        4.10584077
 C            0.92755464        1.58512037        2.74849041
 C            2.99554138        0.30842736        2.59459875
 C            2.14172466        1.30390239        2.10616045
 C            3.00620398       -1.90482133        1.91298785
 C            3.60504701       -0.61087529        1.65326951
 C            2.19746379       -2.48922268        0.93766300
 C            0.52417580       -3.07196309        2.64455998
 C            1.13163944       -3.28364802        1.34026266
 C           -1.39676050       -1.55490810        2.90186096
 C           -0.87609471       -2.74625217        2.41415771
 C           -2.29261026       -0.81636833        2.12098338
 C           -1.77407153        1.19036596        3.42027140
 C           -2.69300748        0.43306301        2.59141992
 C           -0.06089719        2.32221719        2.08389590
 C           -1.35630138        2.31439707        2.60811582
 C            0.16699497        2.79347527        0.78088032
 C            2.36310126        1.77847203        0.81360727
 C            1.43864689        2.63202470        0.21049272
 C            3.73372616       -0.19789903        0.34400897
 C            3.33084943        1.15377158        0.02335468
 C            2.25282254       -2.01939390       -0.38110476
 C            3.18713366       -1.03773255       -0.70853571
 C            1.22901964       -2.32662611       -1.29172651
 C            0.05343306       -3.53867068        0.41464827
 C           -1.19210584       -3.15735420        1.06363660
 C            0.20443204       -3.21377128       -0.92246490
 C           -2.53185198       -1.17892566        0.78157854
 C           -2.12454100       -2.44096961        0.32088760
 C           -3.03148030       -0.23534144       -0.13442419
 C           -3.28510848        1.38600800        1.67977925
 C           -2.47627750        2.59612224        1.74232644
 C           -3.41780820        1.02526776        0.28743606
 C           -0.90276997        3.30270794        0.01577557
 C           -2.20422667        3.00499220        0.38935598
 C           -2.99171880        2.16504591       -0.49703695
 C           -0.72209116        3.56311858       -1.33479345
 C            1.68970530        3.06600157       -1.09157737
 C            0.61152252        3.61945318       -1.87693542
 C            3.20661390        1.19463698       -1.41741707
 C            2.94361153       -0.17012987       -1.84877285
 C            2.47340333        2.22154693       -1.97724658
 C            1.14204462       -1.61681905       -2.50305858
 C            1.85190826       -0.42334840       -2.66855505
 C            0.18861571       -1.97515263       -3.45237377
 C           -0.96404145       -3.23958643       -1.66964930
 C           -2.17208654       -2.72053042       -1.04520615
 C           -0.93448570       -2.78215995       -3.03744775
 C           -2.85543426       -0.43427343       -1.49901523
 C           -2.71880405       -1.73713332       -1.95438258
 C           -2.13884724       -1.99841726       -3.25602826
 C           -2.51307232        1.95058047       -1.78734345
 C           -1.57128746        2.85707203       -2.28306947
 C           -2.57732340        0.66262996       -2.33417855
 C            0.60064752        2.93982622       -3.16363215
 C            1.64897927        1.93646698       -3.13559480
 C            1.32030810        0.61748102       -3.44263094
 C           -0.76075109        2.51459678       -3.44197233
 C           -0.34277997       -0.95138917       -4.32743584
 C           -1.77807973       -0.87726340       -4.09000478
 C           -2.06184886        0.46243009       -3.61573191
 C            0.18203111        0.39394649       -4.21213426
 C           -0.95682055        1.28759935       -4.05776006
