   70
C70 / DATE: 7/ 1/2024 / Origin: Program Fullerene / C70 from database
 C            1.24231926        0.08660100        4.36623631
 C            2.47695290       -0.25674555        3.70750691
 C            2.43498793       -1.68375010        3.43894416
 C            0.40631980       -1.10836483        4.38007934
 C            1.04500747       -2.08465096        3.52941235
 C           -0.93266212       -0.68152442        4.05102763
 C            0.42962057        1.14530070        3.80518058
 C           -0.92585411        0.76869329        4.13563703
 C            0.69024161        1.62055585        2.51610568
 C            2.79148671        0.39265896        2.45454036
 C            1.85882497        1.23607539        1.84233659
 C            3.12410111       -1.90766685        2.18564717
 C            3.47014965       -0.60143653        1.64350452
 C            2.59686323       -2.85067787        1.31831553
 C            0.39945895       -2.51854325        2.37064087
 C            1.17176481       -3.15743067        1.40337789
 C           -1.59329209       -1.27373901        2.97728321
 C           -0.84065518       -1.96287918        2.01239994
 C           -2.81502093       -0.71276162        2.62189484
 C           -1.95464105        1.44327214        3.51168025
 C           -3.08046649        0.64675214        3.06604335
 C           -0.35682483        2.21871146        1.80510350
 C           -1.61363859        2.32463823        2.40498664
 C           -0.23846306        2.43616013        0.42987472
 C            1.96802869        1.44708229        0.46746832
 C            0.97064378        2.14925310       -0.21763785
 C            3.46579443       -0.43079059        0.26678689
 C            2.95671546        0.76191642       -0.24299952
 C            2.92679230       -2.74083112       -0.08769419
 C            3.49978398       -1.56076090       -0.55531864
 C            0.66931272       -3.27103277        0.04835054
 C            1.82366195       -3.32471387       -0.82902412
 C           -1.24211769       -1.94940857        0.66280976
 C           -0.43518429       -2.51755797       -0.32358794
 C           -3.28160654       -0.81532172        1.25261663
 C           -2.41648118       -1.30351683        0.27915136
 C           -3.69918431        1.35817190        1.97083492
 C           -2.79518506        2.42441370        1.56827565
 C           -4.07317785        0.37468324        0.97348382
 C           -1.35794172        2.84993479       -0.30545623
 C           -2.64517004        2.65399683        0.20878926
 C           -1.21095424        3.17190132       -1.65060414
 C            1.13722017        2.45005382       -1.57753672
 C            0.03304874        2.85763398       -2.32237343
 C            3.15975459        1.04973422       -1.58087565
 C            2.17417253        1.84229505       -2.28539783
 C            3.58409297       -1.38196183       -1.93218527
 C            3.57557776       -0.02923639       -2.45970036
 C            1.67015263       -2.97137118       -2.15948931
 C            2.72615770       -2.19123725       -2.78345467
 C           -0.60191218       -2.13764924       -1.65908927
 C            0.39941942       -2.41153165       -2.59326996
 C           -2.59094774       -0.92404281       -1.05446144
 C           -1.58470628       -1.20112602       -1.98484924
 C           -4.15247871        0.81309688       -0.33559894
 C           -3.63702555        2.13809513       -0.62538151
 C           -3.61103798       -0.03315152       -1.37858918
 C           -2.28419930        2.85309775       -2.57668895
 C           -3.46647226        2.20090590       -2.05996582
 C           -3.45655688        0.82271049       -2.53770163
 C           -0.29245920        2.10415177       -3.52738362
 C           -1.38687892       -0.36388379       -3.09381339
 C           -1.73121227        1.97650987       -3.59005867
 C           -2.28335293        0.66040877       -3.36674012
 C            1.83284891        1.12725009       -3.50347648
 C            2.71569316       -0.01031449       -3.63079861
 C            2.11455841       -1.31669113       -3.76701322
 C            0.67459862       -1.42633856       -3.62478182
 C            0.48447202        0.98573639       -3.79846162
 C           -0.11283835       -0.27981193       -3.65486715
