   70
C70 / DATE: 7/ 1/2024 / Origin: Program Fullerene / C70 from database
 C            1.16139406       -0.04880314        4.59938196
 C            2.48800499       -0.27195381        4.05904080
 C            2.51014057       -1.60930801        3.49592506
 C            0.35421329       -1.22005052        4.29016958
 C            1.14497507       -2.10696401        3.47074492
 C           -0.90716140       -0.76201561        3.76885952
 C            0.41901465        1.12711252        4.17881358
 C           -0.90582982        0.69197121        3.77586233
 C            1.05537083        2.11144312        3.43963541
 C            2.99930484        0.63936641        3.05057612
 C            2.36812083        1.85620240        2.84940965
 C            3.23621593       -1.55035205        2.24344705
 C            3.38880229       -0.14648780        1.89102277
 C            2.86084319       -2.42994777        1.24716244
 C            0.63021689       -2.57433115        2.26033751
 C            1.54493588       -3.05313524        1.32948143
 C           -1.46726013       -1.40298893        2.67407662
 C           -0.64879322       -2.17471512        1.82950518
 C           -2.58926595       -0.78950534        2.14382814
 C           -1.59045378        1.35284133        2.75333722
 C           -2.64739611        0.66519385        2.16810630
 C            0.28428448        2.85715064        2.46259008
 C           -0.94785787        2.36372628        2.02527920
 C            2.34676001        2.41415959        1.51193546
 C            1.23739682        3.34590543        1.48445655
 C            3.03967138        0.28482639        0.60430645
 C            2.56316126        1.58373546        0.40941595
 C            3.01465059       -2.00865500       -0.12536748
 C            2.95075174       -0.64843485       -0.43039515
 C            1.11845822       -3.32446553       -0.02734700
 C            2.21678184       -2.93525252       -0.89613324
 C           -1.07046562       -2.45639991        0.51268804
 C           -0.18006599       -3.01932269       -0.41488294
 C           -3.11235147       -1.23108697        0.87635415
 C           -2.36532925       -2.10984331        0.10279863
 C           -3.17115538        1.10065306        0.89060887
 C           -3.73069266       -0.07390199        0.24877860
 C           -1.41012741        2.73220386        0.75203495
 C           -2.44383021        2.01153948        0.13579705
 C            0.76113222        3.74529925        0.25461046
 C           -0.66511268        3.65037305        0.01376076
 C            2.04111123        1.96162677       -0.83189672
 C            1.39571366        3.19630190       -0.92705414
 C            2.46932654       -0.26321461       -1.68476808
 C            1.89301352        1.00623689       -1.85014384
 C            1.92722154       -2.59780201       -2.20114031
 C            2.26931236       -1.25818651       -2.64400124
 C           -0.46181110       -2.96229201       -1.78278628
 C            0.58958699       -2.85636092       -2.69382574
 C           -2.74572451       -2.29169656       -1.22400250
 C           -1.75349040       -2.67638441       -2.20624307
 C           -3.88868722       -0.07294008       -1.12471649
 C           -3.61598891       -1.30424448       -1.84287218
 C           -2.62032778        2.04488697       -1.25719688
 C           -3.32081911        1.02207714       -1.89457993
 C           -0.82873955        3.70839820       -1.42140305
 C            0.47599748        3.44044734       -2.01278445
 C           -1.78327833        2.82179176       -2.04659506
 C            1.13454815        1.30445270       -3.00123070
 C            0.30188837        2.41233451       -3.00666611
 C           -1.12501993        2.20098744       -3.18392864
 C            1.44651545       -0.98493154       -3.80015427
 C            0.42526577       -2.02016291       -3.86687409
 C            0.78532230        0.29173653       -3.88196280
 C           -1.95979117       -1.86267850       -3.40046456
 C           -3.05208498       -0.95343049       -3.13355416
 C           -2.78709334        0.47394318       -3.13441784
 C           -1.56916900        0.95333929       -3.62222292
 C           -0.85644594       -1.37954437       -4.08601925
 C           -0.62780503        0.05952672       -4.14650766
