   70
C70 / DATE: 7/ 1/2024 / Origin: Program Fullerene / C70 from database
 C            1.33317671        0.06154280        4.20577244
 C            2.59805150       -0.21615786        3.56812991
 C            2.61337424       -1.62574266        3.21709193
 C            0.50635899       -1.13313503        4.11305277
 C            1.27703346       -2.15678354        3.43505672
 C           -0.77437669       -0.74580875        3.55015228
 C            0.54855006        1.16834404        3.70803839
 C           -0.81464040        0.70128180        3.52279786
 C            1.08025760        2.03418616        2.75536119
 C            2.95747200        0.54140617        2.38290233
 C            2.17213946        1.62309700        1.97300701
 C            3.20169754       -1.74942505        1.89479208
 C            3.40662536       -0.40552218        1.37912826
 C            2.70588520       -2.72569044        1.04493279
 C            0.67722186       -2.88563355        2.41234163
 C            1.50029070       -3.43633916        1.43344737
 C           -1.26352639       -1.44983039        2.45959237
 C           -0.67273947       -2.66665395        2.11671926
 C           -2.09290832       -0.80028425        1.54137299
 C           -1.59374528        1.34155173        2.56729173
 C           -2.33794418        0.57290695        1.66624784
 C            0.19931145        2.97295757        2.23643371
 C           -1.21475947        2.63354838        2.20648466
 C            0.51322964        3.64548491        0.99439018
 C            2.27219878        2.04666045        0.63911819
 C            1.56517185        3.17968398        0.21658153
 C            3.12961265       -0.11900272        0.04912781
 C            2.89534568        1.20568185       -0.29567194
 C            2.58337293       -2.43417946       -0.37206319
 C            2.69215282       -1.12556854       -0.81959134
 C            0.90575531       -3.96705808        0.22327236
 C            1.51684855       -3.26656149       -0.90052271
 C           -1.28997389       -3.45504974        1.15201101
 C           -0.46160435       -4.18774825        0.20413058
 C           -2.67111495       -1.53235011        0.49696900
 C           -2.41546091       -2.90266639        0.41707406
 C           -3.26545712       -0.86793690       -0.58544563
 C           -3.09614022        1.21828723        0.69583912
 C           -3.47360686        0.50222766       -0.50593644
 C           -1.80470634        3.26990173        1.04249555
 C           -0.74783942        3.99906922        0.35808736
 C           -2.75808122        2.57960589        0.30863172
 C           -0.78857615        4.14189343       -1.02275395
 C            1.65564737        3.61495080       -1.10385948
 C            0.46645613        4.14038733       -1.75508820
 C            2.84098508        1.50384748       -1.64798850
 C            2.34223874        2.79166175       -2.07352374
 C            2.05626141       -0.77224815       -2.01032520
 C            2.30111013        0.49328542       -2.53724877
 C            0.70260718       -2.77879011       -1.92377525
 C            0.91180358       -1.47735115       -2.41041277
 C           -1.13462968       -4.15836752       -1.07874491
 C           -2.44355512       -3.56623350       -0.87232666
 C           -0.50144866       -3.43721954       -2.16858084
 C           -3.16209067       -1.40585493       -1.86626419
 C           -2.74559940       -2.78002188       -2.04656962
 C           -1.55513249       -2.75730369       -2.88584467
 C           -0.09225298       -0.80936444       -3.13286205
 C           -2.49581962       -0.62048153       -2.88925595
 C           -1.33939605       -1.38835953       -3.29768554
 C           -3.08768964        1.32256313       -1.64440446
 C           -2.73883946        2.64259895       -1.14551493
 C           -1.75021922        3.37000505       -1.79713894
 C           -2.33493480        0.74236607       -2.66512536
 C            0.26527822        3.38464275       -2.98102534
 C            1.43558038        2.56429055       -3.18776676
 C            1.26451736        1.13176236       -3.31938243
 C           -0.00414755        0.56860185       -3.29850213
 C           -1.02784112        2.73802789       -2.88663339
 C           -1.14282184        1.35841414       -3.06004070
