   70
C70 / DATE: 7/ 1/2024 / Origin: Program Fullerene / C70 from database
 C            1.35897542       -0.15229610        4.65030894
 C            2.64978632       -0.30513315        4.00511310
 C            2.61298922       -1.52435135        3.22092050
 C            0.50614810       -1.24929339        4.21647685
 C            1.27835755       -2.08976674        3.32825215
 C           -0.73558839       -0.68889346        3.72223891
 C            0.62161187        1.08340847        4.45889887
 C           -0.72736787        0.72738985        4.04525360
 C            1.25584917        2.17865258        3.87695405
 C            3.13273192        0.75816665        3.14519326
 C            2.56496566        2.02080053        3.24852775
 C            3.12341331       -1.22921850        1.88777056
 C            3.37899588        0.19535250        1.82052726
 C            2.50887495       -1.85032073        0.80875505
 C            0.69232901       -2.54721394        2.15811981
 C            1.54467102       -2.80754827        1.09795658
 C           -1.22420583       -1.11234631        2.48461184
 C           -0.63270012       -2.20877944        1.85506636
 C           -2.06327648       -0.27260836        1.75135552
 C           -1.45255949        1.59490410        3.24567312
 C           -2.25302564        1.04679187        2.16595095
 C            0.48351682        3.11193705        3.07241146
 C           -0.83808150        2.82279515        2.75784102
 C            2.60239438        2.88299444        2.08568260
 C            1.35400078        3.62727756        2.03533036
 C            2.99745943        0.90542364        0.68201279
 C            2.81138297        2.28108852        0.77968805
 C            2.42251200       -1.17728218       -0.41449676
 C            2.49376459        0.21955499       -0.43240562
 C            1.86497859       -1.86282960       -1.50013183
 C            1.03243929       -3.53978862        0.05209607
 C            1.45859069       -3.18147880       -1.27941140
 C           -1.15731410       -2.67461630        0.64516713
 C           -0.40903116       -3.64354952       -0.01997089
 C           -2.43211268       -0.62271958        0.44989670
 C           -2.02280350       -1.84934020       -0.09126597
 C           -2.95876582        0.36760156       -0.38287260
 C           -2.38197855        2.08351538        1.16184086
 C           -1.33036310        3.05588732        1.40555321
 C           -2.63104075        1.69840166       -0.14128187
 C            0.89476878        3.61671401        0.65834593
 C            1.90075918        2.93261366       -0.13340038
 C           -0.44838336        3.37420314        0.36864177
 C            1.87952531        0.93304609       -1.46794706
 C            1.46747757        2.25100869       -1.25338910
 C            1.35204921       -1.14580230       -2.59162723
 C            1.37121470        0.25237236       -2.57941274
 C            0.66576431       -1.81176091       -3.61396093
 C            0.50202948       -3.81381472       -2.16116054
 C           -0.72277177       -3.98641835       -1.38726631
 C            0.15351612       -3.14620856       -3.38893007
 C           -2.39062513       -2.19030850       -1.40727333
 C           -1.76144380       -3.24908129       -2.06151452
 C           -1.29546004       -3.05111028       -3.42205381
 C           -3.42043631        0.02951207       -1.64425508
 C           -3.08882817       -1.27030529       -2.18975427
 C           -3.28258056        1.01054551       -2.70761923
 C           -2.04202089        2.43367564       -1.16312478
 C           -0.77850481        2.98287219       -0.93360505
 C            0.26532253        2.65791553       -1.80535505
 C           -2.43195127        2.16525854       -2.47048115
 C            0.59819166        0.96664761       -3.50442112
 C           -0.02784537        2.20553519       -3.07895380
 C           -1.41257638        2.17693404       -3.50028751
 C           -0.37084747       -1.11259516       -4.34850029
 C           -1.62965099       -1.80669047       -4.08176176
 C           -2.70810973       -1.08615352       -3.58681783
 C           -2.79682421        0.32708545       -3.89339664
 C           -0.34374699        0.27300409       -4.36862565
 C           -1.59853557        1.00873622       -4.34170078
