   70
C70 / DATE: 7/ 1/2024 / Origin: Program Fullerene / C70 from database
 C            1.44016969       -0.02920341        4.89892402
 C            0.62744204       -1.18227497        4.57673963
 C            1.32477721       -1.96908092        3.57183914
 C            2.65275390       -0.11844739        4.10914464
 C            2.51623710       -1.23244162        3.18724627
 C            2.88304523        1.19008215        3.54593321
 C            0.71565214        1.14833385        4.44753235
 C            1.60864096        1.90211308        3.60301615
 C           -0.69675505       -0.69539041        4.24866683
 C           -0.54138020        0.70571496        3.88585363
 C           -1.46916650       -1.49352095        3.42671093
 C            0.56148499       -2.57128262        2.58118034
 C           -0.82010397       -2.61202151        2.76311250
 C            1.06348429       -2.61219340        1.28067420
 C            2.78340312       -1.01546603        1.83372456
 C            1.98219156       -1.64029917        0.87194264
 C            3.59532581        1.25319440        2.36049034
 C            3.55570189        0.08983780        1.47486273
 C            3.37446559        2.41460500        1.53006585
 C            1.11769123        2.47900059        2.43412097
 C            2.06254986        3.03330014        1.58349729
 C           -0.90282304        1.11916795        2.60030140
 C           -0.11454508        2.04974288        1.90192445
 C           -2.26910031       -0.85370780        2.40531477
 C           -1.88446112        0.39613972        1.92139124
 C           -1.66731782       -2.98140815        1.64503250
 C           -2.61773441       -1.89517271        1.45578462
 C            0.35315608       -3.32311579        0.32079295
 C           -1.07259267       -3.53752763        0.52420418
 C            0.54870918       -3.00507505       -1.08087782
 C            1.96912655       -1.17462814       -0.45405005
 C            1.19864121       -1.82285542       -1.41762285
 C            3.51655961        0.57406056        0.10474364
 C            3.60665188        2.01302289        0.15920215
 C            2.61592422        0.01111127       -0.79266773
 C            1.69111165        3.35472890        0.23051275
 C            2.68323737        2.76096562       -0.65347111
 C           -0.49286012        2.43775561        0.60193375
 C            0.35966821        3.25934075       -0.15281852
 C           -2.21707376        0.73078852        0.61252730
 C           -1.58177999        1.80184068       -0.02183591
 C           -2.95081098       -1.51903259        0.16358086
 C           -2.99665247       -0.15742579       -0.13008925
 C           -1.72224196       -3.35940488       -0.76048623
 C           -0.67609950       -3.36811353       -1.76766259
 C           -2.75703366       -2.43334046       -0.87427844
 C           -0.94688163       -2.79261112       -2.99719306
 C            0.85728200       -1.15509810       -2.59860249
 C           -0.08608683       -1.71836642       -3.46541042
 C            2.13850930        0.77210311       -1.87064982
 C            2.19537305        2.17823553       -1.80850542
 C            1.30263036        0.15478013       -2.81542571
 C            0.13218088        3.38927794       -1.51787607
 C            1.17307654        2.89389103       -2.40396638
 C           -1.96598858        2.15982025       -1.32322268
 C           -1.13226721        2.97529173       -2.07623200
 C           -3.50845974        0.24516478       -1.35068780
 C           -2.93615554        1.40981472       -1.99392925
 C           -3.18959647       -2.09337719       -2.15161885
 C           -2.31823764       -2.39965110       -3.27498893
 C           -3.73708945       -0.76574786       -2.36702430
 C           -0.89144791       -0.85410089       -4.31383383
 C           -2.74861533        1.08916156       -3.40559751
 C           -2.28260544       -1.24115574       -4.14794260
 C           -3.21947978       -0.26363682       -3.62732503
 C            0.68517725        0.93108913       -3.80042832
 C            0.54452118        2.34836421       -3.57552567
 C           -0.87482178        2.62676393       -3.46360422
 C           -0.57067344        0.49297115       -4.37846091
 C           -1.57761374        1.49459903       -4.02861300
