   70
C70 / DATE: 7/ 1/2024 / Origin: Program Fullerene / C70 from database
 C            1.51672280        0.02092694        4.79263743
 C            0.69789970       -1.15214651        4.57000106
 C            1.31725614       -1.95336525        3.52668307
 C            2.66173249       -0.07258915        3.90852761
 C            2.47586151       -1.22416496        3.04133604
 C            2.81915852        1.22159886        3.28334018
 C            0.73980408        1.17479011        4.37017096
 C            1.54761350        1.91513031        3.42834440
 C           -0.65817070       -0.69338219        4.34804979
 C           -0.55633828        0.69805187        3.93474237
 C           -1.48778160       -1.52254257        3.61705011
 C            0.48120518       -2.57477056        2.60906004
 C           -0.87954578       -2.63774319        2.91011595
 C            0.87483895       -2.63353514        1.27227789
 C            2.65998431       -1.05764595        1.66820926
 C            1.78647462       -1.69301524        0.77865848
 C            3.41782285        1.25480793        2.03553702
 C            3.40909489        0.03419318        1.23430290
 C            3.04561218        2.32720876        1.13495552
 C            0.95332217        2.43114220        2.28218109
 C            1.80171437        2.93703374        1.30255455
 C           -1.03079603        1.06837878        2.67392784
 C           -0.33171534        2.00576882        1.90529907
 C           -2.38736657       -0.91656981        2.66067358
 C           -2.03197191        0.29970608        2.07610776
 C           -1.81858064       -3.03680889        1.87570805
 C           -2.84327061       -2.00104517        1.81351718
 C            0.09083111       -3.35922989        0.38417036
 C           -1.31581602       -3.56700002        0.69598676
 C            0.19204951       -3.08984420       -1.03583033
 C            1.73657800       -1.30255166       -0.57167525
 C            0.90861947       -1.97777508       -1.46881198
 C            3.35513749        0.43355116       -0.16070807
 C            3.44049926        1.88325027       -0.18790324
 C            2.47153718       -0.20575819       -1.02244516
 C            2.92699156        2.55599010       -1.28143612
 C            1.23609429        3.59816882        0.22280466
 C            1.96616871        3.61578548       -1.03043052
 C           -0.81844815        2.34805689        0.64061447
 C           -0.15826373        3.32999231       -0.08416205
 C           -2.42685783        0.56411859        0.76069025
 C           -1.73040082        1.50634570       -0.00087478
 C           -3.40879403       -1.67804127        0.59266663
 C           -3.32236029       -0.30028725        0.14021075
 C           -2.06871971       -3.40072502       -0.53461733
 C           -1.10489012       -3.37841584       -1.62315056
 C           -3.14903087       -2.52427014       -0.55875244
 C           -1.43974810       -2.75902647       -2.81640683
 C            0.60689305       -1.40492677       -2.70864899
 C           -0.43073380       -1.94949256       -3.47256827
 C            2.11124966        0.42461721       -2.21564966
 C            2.41284623        1.77960550       -2.39556310
 C            1.19471307       -0.18554861       -3.07652418
 C            0.99574777        3.59436461       -2.10569697
 C           -0.32132979        3.38945162       -1.52301559
 C            1.46056311        2.63208260       -3.08629952
 C           -1.90959961        1.57310448       -1.39797680
 C           -1.17810605        2.49887943       -2.16020621
 C           -3.41594195       -0.31588750       -1.30267955
 C           -3.37145965       -1.70884979       -1.73709291
 C           -2.69395928       -2.02089103       -2.90720657
 C           -2.74681535        0.64838535       -2.04739715
 C           -1.15008345       -1.11364093       -4.40777798
 C           -2.49203129       -0.95918281       -3.87390280
 C           -2.60034575        0.41289034       -3.41394855
 C            0.62412838        0.59411567       -4.08737971
 C            0.50196538        2.01746082       -3.86581746
 C           -0.88839103        2.20599114       -3.49143883
 C           -0.64433079        0.21095600       -4.66975109
 C           -1.62673659        1.16476794       -4.16736651
