   70
C70 / DATE: 7/ 1/2024 / Origin: Program Fullerene / C70 from database
 C            1.33982388        0.12131001        5.00553354
 C            0.56761315       -1.10370741        4.88674041
 C            1.41788910       -2.09188739        4.26991881
 C            2.52256120       -0.02700232        4.17365593
 C            2.65301924       -1.42775835        3.86410265
 C            2.41492929        0.91365840        3.07576844
 C            0.54185673        1.19798209        4.44735523
 C            1.28339813        1.78051311        3.35763702
 C           -0.68510210       -0.77297452        4.23891656
 C           -0.77085167        0.67701883        4.14629491
 C           -1.14809217       -1.53425977        3.16302848
 C            0.92436752       -2.80371917        3.10598974
 C           -0.27943911       -2.42060968        2.50467060
 C            2.89692651       -1.80976742        2.48871094
 C            2.08570953       -2.98820247        2.26321756
 C            2.61779829        0.49197240        1.75441652
 C            2.95345690       -0.84262075        1.47755415
 C            2.12179946        1.30501841        0.72768109
 C            0.57554492        2.25962573        2.27179935
 C            1.25958839        2.34746979        1.07377686
 C           -1.46380522        1.21120621        3.06510487
 C           -0.82168780        2.13632854        2.22734886
 C           -2.23903310       -1.02191468        2.47107872
 C           -2.45810013        0.41499969        2.52131781
 C           -2.48852920       -1.44737300        1.10745434
 C           -0.47218507       -2.72455399        1.14679980
 C           -1.48519109       -2.09880701        0.41765607
 C            1.88042873       -3.36748178        0.95560635
 C            0.51398276       -3.43096935        0.46862803
 C            2.90032026       -1.29740231        0.15747117
 C            2.60593259       -2.64379935       -0.06274929
 C            2.19882221        0.87900711       -0.60370177
 C            2.70916270       -0.38916451       -0.88722712
 C            1.64977515        1.67199964       -1.62416201
 C            0.69525816        3.12958709        0.09003496
 C            1.03064415        2.87237134       -1.29085894
 C           -1.48239575        2.60615889        1.07879160
 C           -0.73501529        3.35815325        0.16522995
 C           -3.06973725        0.80978129        1.27694187
 C           -3.21189685       -0.38148522        0.45477580
 C           -2.67509634        1.99169724        0.66238006
 C           -3.12355464       -0.22758625       -0.92002726
 C           -1.36469951       -1.91926504       -0.96975826
 C           -2.18363460       -0.98528905       -1.64068801
 C            0.59213399       -3.32528383       -0.97668769
 C            1.98230939       -3.02785730       -1.30579355
 C           -0.41723511       -2.66967504       -1.67862566
 C            2.65807698       -0.87546423       -2.19386219
 C            2.23295545       -2.25115279       -2.41793651
 C            1.52622040        1.17785431       -2.92709968
 C            2.07417156       -0.05981982       -3.24322797
 C            0.55961510        1.71376695       -3.78831419
 C           -0.07835058        3.35760185       -2.08956602
 C           -1.21067844        3.56521474       -1.18968053
 C           -0.27497123        2.82278145       -3.35381859
 C           -3.14929573        2.19224204       -0.63285608
 C           -3.50940168        1.01514793       -1.40623416
 C           -2.47104346        3.10465200       -1.53205740
 C           -1.62534867        2.57368326       -3.82666698
 C           -3.32242859        1.32171223       -2.80073977
 C           -2.72738837        2.64828873       -2.88713230
 C           -1.98902327       -0.73129477       -3.01158050
 C           -0.27534827        0.81125537       -4.57368140
 C           -2.51909856        0.42171739       -3.59350069
 C           -1.64626060        1.24449256       -4.40959421
 C           -0.17080979       -2.37955702       -3.01551435
 C            1.20962810       -2.22045445       -3.43844255
 C            1.31658292       -0.94493687       -4.10934018
 C           -0.94430430       -1.35731547       -3.68447268
 C           -0.02326934       -0.54585746       -4.47779065
