   70
C70 / DATE: 7/ 1/2024 / Origin: Program Fullerene / C70 from database
 C            1.06226687        0.04249529        4.64972503
 C            2.30008273       -0.30609112        3.99645216
 C            2.25307940       -1.73203568        3.71988713
 C            0.24380116       -1.16326515        4.70817635
 C            0.86387446       -2.12973432        3.82960680
 C           -1.11986769       -0.77036322        4.44364894
 C            0.23821104        1.07865304        4.06456949
 C           -1.12026885        0.67736598        4.33864531
 C            0.53281299        1.58536524        2.79258307
 C            2.63183428        0.34902368        2.75037579
 C            1.72396937        1.22247938        2.14294862
 C            2.92553192       -1.95268908        2.45455583
 C            3.29442475       -0.64718920        1.92813143
 C            2.37642532       -2.87686539        1.57923574
 C            0.20283757       -2.55547503        2.67512718
 C            0.96138646       -3.20391612        1.70703805
 C           -1.76809820       -1.27393224        3.24653355
 C           -1.02363221       -1.97896175        2.30862165
 C           -2.11275579        1.02206744        3.35867170
 C           -2.63105143       -0.20980327        2.78526579
 C           -0.49141163        2.20464507        2.05910562
 C           -1.83001243        2.03996327        2.46800751
 C           -0.21233021        2.68500769        0.77011917
 C            1.87571714        1.47442514        0.77681864
 C            0.90905003        2.21089303        0.08669950
 C            3.29529917       -0.45543008        0.55388297
 C            2.85603236        0.77500762        0.06930227
 C            2.66118929       -2.73523766        0.16515130
 C            3.26077023       -1.56940868       -0.29175302
 C            0.42349616       -3.37390749        0.37277939
 C            1.52622761       -3.26395364       -0.56954220
 C           -1.41151289       -1.93855500        0.96222507
 C           -0.79551326       -2.79828042        0.04613859
 C           -3.01539766       -0.16544111        1.44742310
 C           -2.39748469       -1.02805313        0.53100823
 C           -2.82937380        2.25888647        1.53994598
 C           -3.46415433        1.07100547        0.98913327
 C           -1.20181637        3.36467616        0.06312372
 C           -2.57644537        3.17373120        0.45883440
 C           -1.17612008        3.35913252       -1.38859421
 C            1.04132415        2.42793336       -1.29382391
 C           -0.05116852        2.87144625       -2.04448652
 C            3.09572022        1.08385054       -1.25945907
 C            2.16534558        1.94560959       -1.96209473
 C            3.27464403       -1.35867166       -1.66411103
 C            3.45149245       -0.00387270       -2.14845391
 C            1.27228195       -2.78245986       -1.85223659
 C            2.23778852       -1.98861574       -2.47391849
 C           -1.12373842       -2.72567069       -1.29994503
 C           -0.05038104       -2.71933749       -2.28626546
 C           -2.64189406       -0.86281950       -0.84069578
 C           -2.14174100       -1.79652323       -1.73950846
 C           -3.64046853        1.28947739       -0.42913427
 C           -3.30155261        2.67692976       -0.69266714
 C           -2.50263067        2.96800208       -1.86155595
 C           -3.21038644        0.32097050       -1.32682881
 C           -2.58814624        2.08650428       -2.92771232
 C           -2.98367877        0.71042375       -2.65012431
 C           -0.17756532        2.46955478       -3.37478350
 C           -1.47706014        2.03943782       -3.85262061
 C            2.02436662        1.43311098       -3.31754905
 C            2.67601514        0.13992012       -3.36380298
 C            1.84891824       -1.04515923       -3.51236459
 C            0.79668804        1.55975246       -3.94254968
 C           -0.42791081       -1.79831396       -3.34637690
 C           -1.80236541       -1.38597433       -3.09103382
 C           -2.24681750       -0.15831017       -3.55224881
 C           -1.33990452        0.67077009       -4.32225090
 C            0.50519032       -0.88472373       -3.83685439
 C            0.07656130        0.35052358       -4.32415189
