   70
C70 / DATE: 7/ 1/2024 / Origin: Program Fullerene / C70 from database
 C            1.15062452       -0.12249116        4.86702488
 C            2.35073310       -0.38832745        4.09588109
 C            2.19604145       -1.69522074        3.48068078
 C            0.27980895       -1.28114945        4.74035320
 C            0.83721332       -2.14125795        3.71160600
 C           -1.07404824       -0.79988695        4.57890406
 C            0.36099352        1.05888631        4.56443348
 C           -1.03017380        0.65122652        4.49020975
 C            0.83404546        1.98876728        3.64644776
 C            2.74671548        0.54500711        3.05438666
 C            2.08824111        1.75783444        2.93542351
 C            2.65529769       -1.59337115        2.11299745
 C            3.03672575       -0.21856360        1.85214005
 C            1.95582342       -2.25241847        1.12060222
 C            0.05887665       -2.50260265        2.60962628
 C            0.69866487       -2.80227324        1.39883828
 C           -1.84202781       -1.27814148        3.44950472
 C           -1.32358423       -2.26992431        2.62286738
 C           -1.82712673        1.05190611        3.33857040
 C           -2.48233791       -0.13326877        2.82436328
 C           -0.09354249        2.58832446        2.70087335
 C           -1.31424589        1.97222738        2.43529667
 C            1.95993786        2.35852392        1.62048068
 C            0.69911902        3.07423639        1.58914538
 C            2.75211384        0.31899784        0.59116191
 C            2.34778132        1.65417534        0.47914250
 C            2.24397062       -1.90294025       -0.18713723
 C            2.51319897       -0.56132821       -0.47400484
 C            1.77541496       -2.74136834       -1.17800690
 C           -0.03879172       -3.34829108        0.34400500
 C            0.59246308       -3.53131313       -0.88682120
 C           -2.05712611       -2.55248453        1.47903292
 C           -1.42745912       -3.25343475        0.37895747
 C           -2.78152059       -0.21382599        1.46695995
 C           -2.86901308       -1.48619782        0.90832202
 C           -1.79699367        1.98132651        1.12808611
 C           -2.49422628        0.87108532        0.63132000
 C            0.09208304        3.23239409        0.35667393
 C           -1.25598058        2.89867867        0.22913984
 C            1.89068116        2.12112169       -0.75452332
 C            0.90188219        3.11161029       -0.76375530
 C            2.23843569       -0.04591475       -1.74674013
 C            2.08593305        1.33809407       -1.89152624
 C            1.68074694       -2.25642483       -2.53636989
 C            1.92291967       -0.91431901       -2.80564214
 C           -0.21009507       -3.57883217       -2.09622798
 C            0.51742895       -2.88127211       -3.14136295
 C           -2.16123282       -2.88408786       -0.82409589
 C           -2.85171245       -1.64089410       -0.53505153
 C           -1.55503026       -3.04007705       -2.05816793
 C           -2.67713608        0.74004882       -0.74954435
 C           -2.62298748       -0.52608077       -1.33338091
 C           -1.84478146        3.01731068       -1.02508102
 C           -2.55099533        1.86435163       -1.55555081
 C            0.38778470        3.56202450       -1.97088623
 C           -1.05580044        3.58616506       -2.10627718
 C            1.81170884        1.89101004       -3.13968841
 C            0.94095332        3.04850052       -3.20717911
 C            1.38264185       -0.40247562       -3.98273132
 C            1.43494841        1.02113244       -4.22968146
 C           -0.42354203       -2.03099074       -3.84526043
 C           -1.61373708       -1.94582411       -3.01492789
 C           -2.07347561       -0.68926434       -2.61128631
 C            0.06493158       -0.86076945       -4.40067202
 C           -2.15050147        1.69409034       -2.94145098
 C           -1.39500818        2.87653194       -3.32475526
 C           -0.17224168        2.71835491       -4.08571953
 C            0.10794856        1.42598531       -4.67029403
 C           -1.74734202        0.43286280       -3.37810194
 C           -0.78101520        0.31451563       -4.38155630
