   70
C70 / DATE: 7/ 1/2024 / Origin: Program Fullerene / C70 from database
 C            1.47788968        0.00153064        4.84809990
 C            0.69244000       -1.19983937        4.62436208
 C            1.57017135       -2.16998360        4.02026689
 C            2.66836116       -0.09885187        4.02167128
 C            2.80306707       -1.48300676        3.64420656
 C            2.56439327        0.89683665        2.97151232
 C            0.70329328        1.12191978        4.35531124
 C            1.48243568        1.79402842        3.33294411
 C           -0.51041151       -0.81646415        3.90938326
 C           -0.60588058        0.63041021        3.96992896
 C           -0.85455993       -1.45427601        2.71613866
 C            1.11408245       -2.87624586        2.84047608
 C           -0.09758433       -2.53270656        2.23142301
 C            3.04490840       -1.80037246        2.25152835
 C            2.28611868       -3.00677280        2.00223729
 C            2.69850539        0.52552047        1.63239397
 C            3.02231745       -0.79423579        1.27976483
 C            2.19926118        1.38939769        0.65746174
 C            0.77425696        2.40455933        2.30843484
 C            1.32799388        2.42224818        1.03011771
 C           -1.23502334        1.28503063        2.92133775
 C           -0.61301337        2.41862481        2.40868274
 C           -1.75195170       -0.81226289        1.86262293
 C           -2.03998287        0.54561052        2.05744021
 C           -2.16322321       -1.45222759        0.69704364
 C           -0.31696169       -2.98810509        0.92625768
 C           -1.41112933       -2.51593593        0.19623863
 C            2.09134999       -3.37578259        0.68957122
 C            0.73216434       -3.62057629        0.25254814
 C            2.90984910       -1.19004426       -0.05801297
 C            2.67337601       -2.53887294       -0.33957879
 C            2.37557793        1.07683367       -0.68736082
 C            2.68265914       -0.23478589       -1.05248145
 C            1.99157052        2.00206018       -1.65315827
 C            0.67152264        3.16889066        0.04794069
 C            1.07796185        3.06506334       -1.28027883
 C           -1.31331687        3.16667397        1.47924211
 C           -0.58000477        3.70640219        0.34905585
 C           -2.78073288        1.24529283        1.10096175
 C           -2.54476748        2.61164195        0.94834985
 C           -3.15450407       -0.86540219       -0.08348685
 C           -3.44829328        0.54298880        0.10032788
 C           -3.22581565       -1.15533956       -1.50537118
 C           -1.56272060       -2.90939880       -1.13531524
 C           -2.40177716       -2.13627358       -2.03336796
 C            0.77386684       -3.59549694       -1.19885000
 C            2.00493763       -2.90953395       -1.57436187
 C           -0.39758033       -3.33400727       -1.88926156
 C            2.48076761       -0.65629065       -2.36868416
 C            1.99506433       -2.00079078       -2.61908136
 C            1.63398774        1.55260770       -2.98772852
 C            1.83314492        0.22349328       -3.32512634
 C            0.11067382        3.22383050       -2.36079311
 C            0.40077997        2.22100749       -3.37138274
 C           -1.54601235        3.93268415       -0.71133426
 C           -2.77478502        3.24801264       -0.33654119
 C           -1.20865951        3.54150876       -2.06455316
 C           -3.63293806        1.13785947       -1.21892170
 C           -3.39919226        0.10360816       -2.21230060
 C           -3.19573507        2.43430567       -1.45847311
 C           -2.28479274        2.69752502       -2.56277807
 C           -0.63803079        1.49028808       -3.94000783
 C           -2.62468880        0.38330296       -3.33404596
 C           -2.00433611        1.69163402       -3.48088195
 C           -1.63205878       -1.86727402       -3.24020337
 C           -0.35351656       -2.54842007       -3.11200840
 C            0.82109132       -1.89390736       -3.47029471
 C            0.76788580       -0.52998536       -3.97225675
 C           -1.69125453       -0.61222406       -3.83610057
 C           -0.46249186        0.07246048       -4.21090050
