   70
C70 / DATE: 7/ 1/2024 / Origin: Program Fullerene / C70 from database
 C            1.20357411       -0.13519769        4.42999460
 C            2.47424974       -0.41636008        3.80439536
 C            2.39885598       -1.75625710        3.24380455
 C            0.35498951       -1.30366259        4.24079747
 C            1.01113110       -2.16193825        3.28238510
 C           -0.97092709       -0.82006514        3.93171331
 C            0.44429878        1.01159440        3.97291651
 C           -0.94518206        0.62536993        4.09714857
 C            0.85270168        1.70153224        2.82968388
 C            2.93695093        0.46254135        2.75025777
 C            2.16276407        1.54786455        2.34626357
 C            3.06200299       -1.72848041        1.95528852
 C            3.54800303       -0.37437485        1.73276435
 C            2.48758521       -2.40077153        0.88466118
 C            0.37873297       -2.44468592        2.07677995
 C            1.15905985       -2.83540424        0.98718740
 C           -1.66124336       -1.35390946        2.84628211
 C           -0.96856590       -2.09969997        1.87987079
 C           -2.85172947       -0.73060266        2.49463161
 C           -1.89976086        1.37268722        3.43044031
 C           -3.03162439        0.66357090        2.86397273
 C           -0.10737678        2.38523310        2.06799381
 C           -1.45348466        2.33376885        2.43284414
 C            0.22662037        2.89235931        0.81201248
 C            2.53594117        2.18396705        1.16929025
 C            1.56478388        2.98391944        0.45354354
 C            3.62924935        0.10453641        0.42479745
 C            3.31006649        1.44097645        0.18159534
 C            3.02149430       -2.13679915       -0.37013157
 C            3.57007925       -0.81386122       -0.62448404
 C            2.32786225       -2.57909394       -1.56503665
 C            0.52681846       -3.39238454       -0.11631055
 C            1.12749779       -3.26227182       -1.43394305
 C           -1.59303389       -2.43151995        0.66792442
 C           -0.90758784       -3.22048901       -0.25623468
 C           -3.38343010       -0.89955923        1.15896782
 C           -2.77765491       -1.79199106        0.28386832
 C           -3.46029958        1.38668475        1.68219038
 C           -2.46186435        2.39047124        1.38745837
 C           -3.76595279        0.41364167        0.65697673
 C           -0.76324695        3.03707524       -0.16486008
 C           -2.04314196        2.53762247        0.07230652
 C           -0.40675994        3.40437412       -1.45830007
 C            1.93652200        2.96512976       -0.95054533
 C            2.84800879        1.85001845       -1.13692401
 C            0.95968707        3.19713893       -1.90235493
 C            3.10484472       -0.39198726       -1.93695819
 C            2.46468296       -1.53380822       -2.56764655
 C            2.57039082        0.88252036       -2.09868633
 C            1.44616210       -1.31599271       -3.48232078
 C            0.06002638       -3.04002414       -2.39443426
 C           -1.20238217       -3.09832065       -1.67469553
 C            0.23324107       -2.11830636       -3.42238806
 C           -3.08293200       -1.65634230       -1.06952368
 C           -2.26439999       -2.30389620       -2.07716615
 C           -3.47267316        0.71948393       -0.66663802
 C           -2.73010999        1.87217078       -0.95288929
 C           -3.45168739       -0.34147247       -1.56641824
 C           -1.27975008        3.02991861       -2.55452377
 C           -2.40377447        2.15468161       -2.27756241
 C            0.90138276        2.33406937       -3.06760337
 C            1.56792024        1.10983437       -3.04817107
 C            1.06236699        0.04806485       -3.80039397
 C           -0.45874096        2.39762958       -3.57565680
 C           -0.87823667       -1.27715877       -3.83839703
 C           -2.10284237       -1.37587412       -3.18784981
 C           -2.86227765       -0.17211131       -2.88314677
 C           -2.36899624        1.07326028       -3.24833185
 C           -0.34302553        0.03165535       -4.18001903
 C           -1.11585363        1.16930743       -3.98246330
