   70
C70 / DATE: 7/ 1/2024 / Origin: Program Fullerene / C70 from database
 C            1.64850258       -0.08962962        4.57971620
 C            0.81195332       -1.24467129        4.30699862
 C            1.37770588       -1.95551892        3.17344996
 C            2.68755629       -0.04805700        3.56668993
 C            2.57570871       -1.24271183        2.76503171
 C            2.60822036        1.22577040        2.88845409
 C            0.82688848        1.09589002        4.41621460
 C            1.45628806        1.94031609        3.42322099
 C           -0.55857538       -0.78701577        4.21743320
 C           -0.53630695        0.66878912        4.18024897
 C           -1.41160317       -1.45691832        3.35523694
 C            0.52462320       -2.45115657        2.18188261
 C           -0.85409611       -2.39266820        2.38533456
 C            1.02359258       -2.61403921        0.88186834
 C            2.83079062       -1.15924214        1.40895673
 C            2.32001145       -2.17224988        0.61613144
 C            2.83939170        1.27161532        1.51437656
 C            3.07709780        0.08343811        0.80839118
 C            2.37295505        2.38431987        0.82228595
 C            0.65107741        2.64459762        2.53646960
 C            1.24862451        3.12033480        1.37285481
 C           -1.28240333        1.32979955        3.20788207
 C           -0.73537851        2.45032998        2.56063525
 C           -2.45088686       -0.70516754        2.67769300
 C           -2.40034555        0.68418725        2.66813891
 C           -1.74640214       -2.41530515        1.24128332
 C           -2.76727905       -1.40270439        1.44313409
 C            0.14240179       -2.83571557       -0.18644703
 C           -1.22108344       -2.57731496       -0.02839236
 C            0.65211721       -3.04409461       -1.47280136
 C            2.82959681       -2.28431695       -0.66336743
 C            2.02508430       -2.91796845       -1.68483684
 C            3.17238952        0.12168947       -0.58750914
 C            3.40243970       -1.08544223       -1.24668301
 C            2.19481382        2.31411702       -0.61630976
 C            2.52449670        1.14776358       -1.28306378
 C            0.42621869        3.57636167        0.26577361
 C            0.94393903        2.97117988       -0.94991635
 C           -1.52688634        3.18271996        1.68049763
 C           -0.94213637        3.67080758        0.44100177
 C           -3.20872139        1.35358085        1.75937361
 C           -2.86063136        2.70578001        1.37752631
 C           -3.21658712       -0.66583298        0.34958733
 C           -3.64799019        0.64755506        0.56363721
 C           -1.96769147       -2.13495991       -1.11537119
 C           -2.88255028       -1.08783902       -0.94299102
 C           -0.22567093       -3.05517742       -2.56022569
 C           -1.56101900       -2.50567433       -2.39336700
 C            0.23926403       -2.66102122       -3.88098313
 C            2.53029085       -2.42446524       -2.95477611
 C            3.19281039       -1.16015994       -2.68110146
 C            1.60170309       -2.19881420       -4.04011274
 C            1.87142096        0.86483130       -2.48217200
 C            2.40146127       -0.12162746       -3.30287502
 C            1.55373393       -0.76176981       -4.28279778
 C            0.07354806        2.35474453       -1.84960467
 C            0.56834028        1.34461305       -2.68921067
 C           -1.81708204        3.27567488       -0.64664987
 C           -3.06763159        2.83447344       -0.05453433
 C           -3.66304637        1.60157534       -0.53541686
 C           -1.30618458        2.57013234       -1.73651345
 C           -3.18645531       -0.26256697       -2.02274407
 C           -3.31719985        1.16117497       -1.80087093
 C           -2.18544173        1.78416883       -2.47310513
 C           -1.82165478       -1.61550328       -3.51555244
 C           -0.62614456       -1.59149322       -4.33647216
 C            0.16314271       -0.37221789       -4.35071113
 C           -0.28989036        0.71088173       -3.60089201
 C           -2.44252215       -0.40651646       -3.25649355
 C           -1.66270285        0.81433435       -3.41253958
