   70
C70 / DATE: 7/ 1/2024 / Origin: Program Fullerene / C70 from database
 C            1.35500888        0.04145825        4.82655098
 C            0.57974500       -1.15197405        4.53342466
 C            1.48406216       -2.10979763        3.94637119
 C            2.59713188       -0.04996966        4.07893110
 C            2.74613956       -1.42824285        3.67955320
 C            2.57595419        0.97226251        3.04473692
 C            0.61900061        1.17225855        4.30338429
 C            1.46094564        1.85299551        3.33534520
 C           -0.59173824       -0.74893108        3.77420443
 C           -0.67320753        0.69661514        3.84085848
 C           -0.89308028       -1.37314537        2.56319765
 C            1.08830172       -2.76634208        2.71782022
 C           -0.12811247       -2.45940328        2.11222825
 C            3.09366744       -1.70689589        2.30271374
 C            2.26394288       -2.81720284        1.87718527
 C            2.82652742        0.62482130        1.71535555
 C            3.29699762       -0.66120366        1.40496044
 C            2.33641766        1.45800715        0.69843443
 C            0.81441680        2.46681679        2.27471177
 C            1.42052898        2.47368700        1.01841079
 C           -1.23448995        1.36855606        2.76562932
 C           -0.57326139        2.50683037        2.32019232
 C           -1.74485354       -0.71398588        1.66755572
 C           -1.99314616        0.65314696        1.83562127
 C           -2.11359097       -1.34755683        0.48030456
 C           -0.31223820       -2.90281275        0.80683262
 C           -1.47742308       -2.54481094        0.13638655
 C            2.07321490       -3.00173793        0.51596174
 C            0.79881543       -3.34877656        0.07624016
 C            3.44691941       -1.02193363        0.07247769
 C            2.90161291       -2.30090844       -0.35834946
 C            2.65713347        1.18850840       -0.63623838
 C            3.17273515       -0.05579837       -0.97059764
 C            2.06517937        1.92825133       -1.65245996
 C            0.79226534        3.20504653        0.00408153
 C            1.17154351        3.01624772       -1.32095846
 C           -1.21848478        3.29181613        1.38883620
 C           -0.43176525        3.81181653        0.28736117
 C           -2.62134449        1.37829419        0.81804078
 C           -2.43051963        2.76387333        0.80221068
 C           -2.90679624       -0.66503404       -0.45045239
 C           -3.08801700        0.71512249       -0.32469440
 C           -3.22311127       -1.26373479       -1.67128445
 C           -1.78297926       -3.19471109       -1.05245181
 C           -2.67434767       -2.56389286       -1.99638328
 C            0.64595191       -3.65431167       -1.27065838
 C           -0.69171943       -3.75944157       -1.81811475
 C            2.52162888       -2.17655000       -1.75823937
 C            2.60430562       -0.76826280       -2.10671040
 C            1.45510035       -2.92411350       -2.23264679
 C            1.50857507        1.22412561       -2.80120142
 C            1.58206232       -0.16142230       -2.83540993
 C            0.18400213        3.10452278       -2.38951213
 C            0.27973984        1.88605212       -3.18133623
 C           -1.36652778        4.10387231       -0.78712640
 C           -2.64931906        3.52741410       -0.40806368
 C           -1.06052257        3.65955345       -2.13243837
 C           -3.48943623        1.43981406       -1.45347779
 C           -3.19155248        2.85284049       -1.55830513
 C           -2.24549707        3.00605768       -2.65570659
 C           -3.10474039       -0.47321495       -2.88135734
 C           -0.85633101        1.12355555       -3.43500246
 C           -3.20494645        0.89563742       -2.76431186
 C           -2.11858736        1.70344546       -3.28905380
 C           -1.94551692       -2.41691576       -3.25146595
 C           -0.68004508       -3.09158164       -3.10859615
 C            0.53464048       -2.30442843       -3.16635612
 C            0.46407004       -0.90977146       -3.22628417
 C           -1.94512601       -1.00452855       -3.56281007
 C           -0.75590941       -0.26997815       -3.51805537
