   70
C70 / DATE: 7/ 1/2024 / Origin: Program Fullerene / C70 from database
 C            1.37867391        0.06558486        4.69410609
 C            2.57074437       -0.05621981        3.88195532
 C            2.56845022       -1.38092010        3.28140102
 C            0.55844139       -1.11153150        4.45843070
 C            1.28266466       -1.99255367        3.55466517
 C           -0.76779426       -0.66269926        4.06680078
 C            0.53797002        1.23063080        4.51802284
 C           -0.81768061        0.77118856        4.24908064
 C            0.86891794        2.19857695        3.48642906
 C            2.80840011        0.90386644        2.81682839
 C            1.92258425        1.95984460        2.59678197
 C            2.98360269       -1.24165792        1.89605977
 C            3.29994025        0.15832818        1.67423493
 C            2.28291040       -1.93281051        0.90940378
 C            0.58866513       -2.56667209        2.49560569
 C            1.26547034       -2.80569697        1.29700487
 C           -1.33420764       -1.22029429        2.92774567
 C           -0.79562681       -2.41087857        2.45769912
 C           -2.06926123       -0.42239597        2.04227939
 C           -1.34851485        1.58769741        3.17430057
 C           -0.40085511        2.66674342        2.96325570
 C           -1.92186903        0.96893682        2.06426148
 C           -0.40561941        3.31218282        1.74197694
 C            1.88748722        2.55258611        1.33102459
 C            0.85010672        3.43492444        1.02918307
 C            3.09740550        0.68178102        0.40887143
 C            2.63614140        1.99281697        0.28986971
 C            2.30083556       -1.43757408       -0.39877839
 C            2.90464675       -0.20370885       -0.64931009
 C            1.49934245       -2.02969003       -1.38087057
 C            0.62147121       -3.55592575        0.32127839
 C            0.76172227       -3.16232704       -1.07056588
 C           -1.51417883       -3.11970258        1.51065319
 C           -0.76979829       -3.89979008        0.54125899
 C           -2.65508278       -1.02942155        0.92832734
 C           -2.56129658       -2.41755811        0.79231689
 C           -2.98859386       -0.25313783       -0.18325816
 C           -2.04315818        1.69304789        0.87612616
 C           -1.39633861        2.92303894        0.75454471
 C           -2.50973820        1.05727020       -0.27393233
 C            0.51368756        3.70246722       -0.35736772
 C           -0.87809114        3.32267748       -0.54216539
 C            2.58026515        2.56378755       -0.97933669
 C            1.43051679        3.37686654       -1.34067500
 C            2.93090657        0.29378070       -1.94575404
 C            2.90843657        1.73302738       -2.12571455
 C            1.21011874       -1.33503265       -2.55475295
 C            2.05130234       -0.29402834       -2.94056156
 C           -0.03268843       -1.50469270       -3.18094581
 C           -0.51325667       -3.37109624       -1.73468115
 C           -1.46425886       -3.81422400       -0.72866367
 C           -2.66859252       -3.02957723       -0.52323475
 C           -0.94208957       -2.45126980       -2.68800572
 C           -3.50313633       -0.88431614       -1.31360005
 C           -3.12063781       -2.25752707       -1.57801449
 C           -2.31621169       -2.21231339       -2.78500775
 C           -3.47232720       -0.19733418       -2.59187746
 C           -2.80538099       -1.07893362       -3.54209834
 C           -2.25938746        1.63609774       -1.52488686
 C           -1.24081558        2.58015992       -1.65770262
 C           -2.82315432        1.09286896       -2.67088696
 C            0.94372501        2.90609896       -2.62556489
 C            1.96140734        2.03489731       -3.18299156
 C            1.53985856        0.77971948       -3.77873268
 C           -0.39234919        2.53898979       -2.77129421
 C           -0.44513418       -0.58453253       -4.14657092
 C           -1.85596920       -0.28604246       -4.28870295
 C           -2.03554069        1.09908091       -3.88542015
 C            0.24026591        0.68798552       -4.24935402
 C           -0.71844920        1.70653504       -3.84050403
