   70
C70 / DATE: 7/ 1/2024 / Origin: Program Fullerene / C70 from database
 C            1.36897781       -0.04035548        4.51325159
 C            2.63021441       -0.19146453        3.81327460
 C            2.56843956       -1.41854515        3.03655719
 C            0.53265020       -1.17636809        4.17439574
 C            1.27316500       -2.02727933        3.25761149
 C           -0.76535706       -0.67648549        3.74508405
 C            0.59178299        1.16445593        4.29267069
 C           -0.70822664        0.77286086        3.75797259
 C            1.22232772        2.28352911        3.76762573
 C            3.06829623        0.87382996        2.92973669
 C            2.47194870        2.12420118        3.02512374
 C            2.95488799       -1.11166956        1.67410327
 C            3.28972756        0.30038211        1.61145485
 C            2.22495846       -1.66845728        0.63021534
 C            0.58503354       -2.54118554        2.16686406
 C            1.20292118       -2.57765546        0.91167344
 C           -1.38508164       -1.31482796        2.67970254
 C           -0.80143090       -2.48331966        2.20585973
 C           -2.17784768       -0.57154300        1.80400461
 C           -1.26857745        1.49033474        2.69964682
 C           -1.97461749        0.81142749        1.69997675
 C            0.40874721        3.24715121        3.05353556
 C           -0.84060369        2.79746768        2.46581125
 C            2.38046466        2.94477336        1.83267577
 C            1.21924551        3.80095673        1.98680220
 C            2.93060109        1.02180303        0.47538144
 C            2.63166148        2.38551398        0.58030242
 C            2.23078399       -1.02968555       -0.60294644
 C            2.58615348        0.32318512       -0.68609870
 C            1.63184774       -1.66323414       -1.68552081
 C            0.48952830       -3.14909282       -0.14887440
 C            0.74600733       -2.72186099       -1.46184622
 C           -1.49319522       -3.21939423        1.26589106
 C           -0.73154653       -3.75489777        0.15919993
 C           -2.86778688       -1.25610525        0.79681018
 C           -2.68656146       -2.63416578        0.68793539
 C           -3.40685987       -0.54708632       -0.27494379
 C           -2.27002968        1.47166092        0.50453432
 C           -3.05736352        0.84844161       -0.44845628
 C           -0.90715553        3.33819914        1.11817822
 C            0.35909142        3.99768135        0.83661863
 C           -1.51840991        2.57895167        0.12576628
 C            2.14644331        3.05877082       -0.53766832
 C            0.91512312        3.83125131       -0.41925641
 C            2.40621176        1.02305492       -1.88053612
 C            2.10644317        2.38049475       -1.82019633
 C            1.71782935       -1.07684133       -2.94476752
 C            2.07271002        0.32753305       -3.03924070
 C            0.68920538       -1.34453088       -3.93879383
 C           -0.04056813       -3.18249878       -2.52110344
 C           -0.25220318       -2.31999470       -3.66520910
 C           -1.68990774       -4.05887344       -0.88338299
 C           -2.89716861       -3.29869398       -0.58821661
 C           -1.32392740       -3.79988297       -2.25360908
 C           -3.47605352       -1.15029255       -1.60022529
 C           -1.65802768       -1.93920092       -3.63232480
 C           -3.21800155       -2.50405198       -1.75705389
 C           -2.34480315       -2.93698883       -2.83099915
 C           -2.75480812        1.06996853       -1.85183360
 C           -2.93403418       -0.19215517       -2.55418553
 C           -1.99624186       -0.59015354       -3.50848806
 C           -1.12245070        2.72062792       -1.21018385
 C            0.05421241        3.40539172       -1.50329486
 C            0.93272943        2.87755523       -2.52335850
 C           -1.69055092        1.89967826       -2.19082804
 C            1.14900177        0.94887592       -3.97351405
 C            0.21132931       -0.06312826       -4.41689738
 C           -1.12372868        0.36086905       -4.03105953
 C            0.38292508        2.09289122       -3.52078948
 C           -1.00050112        1.65819684       -3.38054505
