   70
C70 / DATE: 7/ 1/2024 / Origin: Program Fullerene / C70 from database
 C            1.59355547        0.11213804        4.81452178
 C            0.80775522       -1.09058863        4.61422715
 C            1.64516499       -2.03216245        3.91145860
 C            2.73953119        0.03966916        3.92083606
 C            2.82034798       -1.31282766        3.43217335
 C            2.61613262        1.11552330        2.95761957
 C            0.78371350        1.23822158        4.39210880
 C            1.55101298        1.98579103        3.42029908
 C           -0.45378878       -0.70617440        4.00754141
 C           -0.51380145        0.74480525        3.97310668
 C           -0.93891948       -1.40882269        2.91013574
 C            1.08397093       -2.73005987        2.77355086
 C           -0.24153888       -2.51829338        2.40161926
 C            2.89823982       -1.52959880        2.00130538
 C            2.08039585       -2.69253971        1.72849442
 C            2.71243103        0.86189977        1.58305319
 C            2.83547937       -0.45490019        1.10808556
 C            2.26582191        1.86135689        0.71344733
 C            0.85156344        2.67850827        2.45079929
 C            1.50460110        2.90745279        1.25050770
 C           -1.11023429        1.36797491        2.87793283
 C           -0.53881837        2.55318087        2.41443346
 C           -1.89809666       -0.78707561        2.11518539
 C           -1.88801624        0.60851980        1.99497254
 C           -2.56713759       -1.55645558        1.17495047
 C           -0.64052887       -3.04856743        1.17160780
 C           -1.93413288       -2.78280363        0.73213704
 C            1.63915313       -2.87213080        0.43305670
 C            0.35323980       -3.37220425        0.23877986
 C            2.52042536       -0.74490368       -0.22573593
 C            2.18215364       -2.05968794       -0.55483983
 C            2.22738763        1.60795070       -0.65966118
 C            2.21105432        0.29013308       -1.11341489
 C            1.87464615        2.62972405       -1.53278615
 C            0.95739327        3.86968368        0.41673948
 C            1.25032292        3.82438048       -0.99795202
 C           -1.22629144        3.27762355        1.44883988
 C           -0.45859342        4.14793853        0.57193712
 C           -2.40573209        1.21518268        0.84098565
 C           -2.19808075        2.57529180        0.62804697
 C           -3.13831793       -0.91066206        0.01140201
 C           -2.83905871        0.42556014       -0.22448863
 C           -2.29143606       -2.99357447       -0.66086278
 C           -3.10949016       -1.86645900       -1.08189829
 C            0.00300892       -3.75586708       -1.05213545
 C           -1.35089519       -3.52971422       -1.52880530
 C            1.92090378       -2.39120026       -1.87514371
 C            0.91639237       -3.41139446       -2.12963592
 C            1.78315433       -0.00215096       -2.41883869
 C            1.73245712       -1.32824336       -2.84273939
 C            1.17609538        2.29792203       -2.75744745
 C            1.14800706        0.97767380       -3.18872654
 C            0.00170961        4.03750999       -1.71422712
 C           -1.06706113        4.10935070       -0.74354375
 C           -2.06766313        3.05711040       -0.73768260
 C           -0.08233051        3.02286215       -2.73822276
 C           -2.71161222        0.89365639       -1.53774414
 C           -2.10308895        2.13003062       -1.77780773
 C           -1.25159840        2.28625954       -2.88635813
 C           -3.02431451       -1.39613967       -2.38335964
 C           -2.95770761        0.03775308       -2.60751761
 C           -1.27276133       -3.04999827       -2.90078241
 C            0.13129212       -2.99696932       -3.27583664
 C            0.68956587       -1.74864310       -3.76791646
 C           -2.12465221       -2.03889009       -3.33085328
 C            0.08728850        0.60776721       -4.01748654
 C           -1.19474931        1.27017666       -3.83119337
 C           -2.22330141        0.25301635       -3.83319254
 C           -0.16680036       -0.79374214       -4.29435915
 C           -1.60481834       -1.00615409       -4.21270238
