   70
C70 / DATE: 7/ 1/2024 / Origin: Program Fullerene / C70 from database
 C            1.25191628       -0.02471456        4.43921571
 C            2.51522796       -0.24254302        3.77194221
 C            2.48095934       -1.57539366        3.19201966
 C            0.39656745       -1.17218329        4.16321005
 C            1.10507015       -2.02948051        3.24063754
 C           -0.90360743       -0.65878785        3.77635265
 C            0.48408450        1.15694780        4.10298518
 C           -0.90700215        0.74467084        4.14040137
 C            0.90915589        2.00108680        3.07246724
 C            2.90033128        0.66508787        2.71191241
 C            1.99056238        1.62505793        2.26333132
 C            3.13469381       -1.50164740        1.89294936
 C            3.61603862       -0.13907863        1.73933657
 C            2.53494054       -2.12934320        0.79982722
 C            0.50081062       -2.38682842        2.04537359
 C            1.31962168       -2.78714052        0.99632839
 C           -1.45422560       -1.03585330        2.55191857
 C           -0.81706094       -1.99993951        1.76742437
 C           -2.44381535       -0.23345316        1.98330201
 C           -1.84736979        1.57114784        3.55469640
 C           -2.75401667        0.99668355        2.57563090
 C            0.00053162        2.94149515        2.59045823
 C           -1.38736699        2.83501773        3.00713708
 C            0.00915299        3.27465513        1.17529955
 C            2.03175501        2.03017200        0.92438701
 C            0.92194905        2.64291330        0.35110104
 C            3.76752986        0.35825398        0.45905172
 C            3.04421510        1.56479984        0.09388451
 C            2.89496363       -1.72937712       -0.49236165
 C            3.63094491       -0.55690177       -0.65754313
 C            2.25168832       -2.29847269       -1.59685051
 C            0.72959458       -3.44720803       -0.06489495
 C            1.31002095       -3.30166413       -1.38447426
 C           -1.37987596       -2.37481215        0.54606481
 C           -0.71007679       -3.33859182       -0.20665987
 C           -2.93146818       -0.52268893        0.70473498
 C           -2.33937922       -1.54509741       -0.05634583
 C           -3.78059959        0.40266447        0.09741382
 C           -3.21437419        2.09437242        1.74406357
 C           -2.22620295        3.15074504        1.86627796
 C           -1.36280672        3.41977613        0.72780576
 C           -3.67785445        1.79694578        0.47774695
 C           -1.73581165        2.91383528       -0.51464718
 C           -3.04643498        2.45657202       -0.65158201
 C            0.58951628        2.37740409       -0.97907208
 C           -0.74813692        2.45845292       -1.40245651
 C            2.81022897        1.51040472       -1.33958686
 C            3.39568897        0.26686969       -1.82367720
 C            1.58620698        1.93705221       -1.85450660
 C            2.31993614       -1.67161770       -2.84636443
 C            2.86338346       -0.32591885       -2.95478569
 C            1.20199566       -1.77252004       -3.77748696
 C            0.23850145       -3.49543486       -2.34404935
 C           -1.01699292       -3.49458167       -1.60837155
 C            0.11462001       -2.56867253       -3.45212630
 C           -2.64009996       -1.67512557       -1.42831039
 C           -1.89314716       -2.53147793       -2.22430951
 C           -1.21893289       -1.98052233       -3.39220372
 C           -3.91874931        0.40520901       -1.34042152
 C           -3.41390170        1.68629424       -1.81744164
 C           -3.25573174       -0.62830820       -2.09515442
 C           -1.12411199        1.93104508       -2.64733642
 C           -1.42532480       -0.63575735       -3.72205309
 C           -2.40122216        1.41032435       -2.80921199
 C           -2.53344365        0.01312815       -3.18049369
 C            1.24723670        1.56592412       -3.14923744
 C            1.94898873        0.45296416       -3.76741544
 C            0.95738445       -0.45279724       -4.32099035
 C           -0.14906566        1.45516781       -3.51208475
 C           -0.34780384        0.15079388       -4.13218236
