   70
C70 / DATE: 7/ 1/2024 / Origin: Program Fullerene / C70 from database
 C            1.12886132        0.03886603        4.56392783
 C            2.36505093       -0.39607885        3.95348394
 C            2.23666926       -1.81399416        3.65174274
 C            0.28160967       -1.13404352        4.70942302
 C            0.84958793       -2.17879799        3.88022204
 C           -1.07705623       -0.71540168        4.45951300
 C            0.34217411        1.05482708        3.88902511
 C           -1.04440064        0.69059071        4.08049144
 C            0.74244872        1.52062603        2.63673524
 C            2.80198303        0.25996948        2.74021769
 C            2.05032673        1.29732784        2.18967497
 C            2.81383585       -2.04173788        2.33630191
 C            3.29547673       -0.76396198        1.84295952
 C            2.15844809       -2.89009253        1.46046051
 C            0.11136823       -2.71307027        2.82225376
 C            0.80425614       -3.32054006        1.77320627
 C           -1.84120042       -1.40993434        3.44464092
 C           -1.25766911       -2.42832118        2.69042964
 C           -1.96028763        0.86160551        2.97026609
 C           -2.63308923       -0.40461254        2.76023034
 C           -0.22244403        1.99401627        1.73662715
 C           -1.55196591        1.57120506        1.84833366
 C            0.19528454        2.61136050        0.55520867
 C            2.38672535        1.70680920        0.90248103
 C            1.56069438        2.62389490        0.25938933
 C            3.25562309       -0.47758843        0.48428002
 C            3.19516735        0.86426022        0.13148886
 C            2.21244318       -2.61294700        0.03518157
 C            2.75229128       -1.41562120       -0.42567620
 C            0.13627972       -3.59570733        0.51589912
 C            0.97500783       -3.08448668       -0.55550662
 C           -1.94878145       -2.85322130        1.55658730
 C           -1.23222750       -3.43463355        0.43270941
 C           -3.10381691       -0.68666289        1.48504998
 C           -2.98770861       -1.99260248        1.00980569
 C           -2.31748970        1.44981484        0.69279742
 C           -3.18385540        0.35346077        0.56025888
 C           -0.74367462        2.86586211       -0.45250167
 C           -1.98524807        2.22999927       -0.41368419
 C           -0.35030118        3.51034605       -1.62369105
 C            2.01574668        3.20295264       -0.92039637
 C            1.05853708        3.73647299       -1.86627162
 C            3.41514179        1.17746301       -1.19985219
 C            3.02209871        2.48742782       -1.67703615
 C            2.40510730       -0.97914728       -1.70961233
 C            2.99210556        0.19693559       -2.17994065
 C            0.40973286       -2.34277258       -1.58817586
 C            1.21514406       -1.44325516       -2.28720215
 C           -1.80596242       -2.89392061       -0.78747408
 C           -3.04842780       -2.23971831       -0.42355191
 C           -0.98160336       -2.30158240       -1.74497562
 C           -3.75841560        0.07254154       -0.67356849
 C           -3.52973104       -1.23868282       -1.25154745
 C           -2.75807128        2.16067347       -1.57056099
 C           -3.65659070        1.04244172       -1.74352663
 C           -0.93915136        3.10157876       -2.88691674
 C           -2.12921268        2.39158097       -2.85746942
 C            1.37410821        3.19034829       -3.18011311
 C            2.53672081        2.33625147       -3.03674046
 C            2.40991522        0.91306918       -3.30316606
 C            0.15094044        2.63040043       -3.72494412
 C            0.70528893       -0.83878909       -3.43050312
 C            1.25421849        0.42279222       -3.89369469
 C            0.13932926        1.31623499       -4.18602048
 C           -1.55290337       -1.44928366       -2.69628274
 C           -2.86716695       -1.01335023       -2.52336704
 C           -3.23108359        0.32913673       -2.93850590
 C           -2.23843817        1.14843474       -3.60813109
 C           -0.73291737       -0.79615037       -3.61511243
 C           -1.08485651        0.53913191       -4.08558445
