   70
C70 / DATE: 7/ 1/2024 / Origin: Program Fullerene / C70 from database
 C            1.15324352        0.02013113        4.28991529
 C            2.42812526       -0.26593047        3.67315838
 C            2.43914539       -1.67496778        3.32540576
 C            0.34346763       -1.18780782        4.22220836
 C            1.07979030       -2.16995372        3.46004692
 C           -0.97327088       -0.80594808        3.76425594
 C            0.35471385        1.10548835        3.75752546
 C           -1.01473347        0.64690967        3.69556516
 C            0.82856378        1.87478109        2.70293185
 C            2.80606245        0.47608519        2.48757909
 C            2.00561073        1.51404566        2.02695140
 C            3.09681643       -1.80844334        2.03832196
 C            3.33121641       -0.46812479        1.51816149
 C            2.63163369       -2.78168267        1.16874775
 C            0.47891174       -2.77465802        2.35884654
 C            1.31034823       -3.34820357        1.39606993
 C           -1.58938174       -1.53557080        2.75430836
 C           -0.86424144       -2.50932991        2.04886554
 C           -2.73075612       -0.97692052        2.18448142
 C           -1.87038455        1.24405586        2.77500788
 C           -2.89637168        0.46718345        2.23594356
 C           -0.07809128        2.71476727        2.06014203
 C           -1.44649114        2.38723695        2.08677695
 C            0.42828411        3.57130402        1.08684039
 C            2.19213898        1.94360465        0.71592340
 C            1.57007064        3.12058848        0.31691090
 C            3.13465298       -0.21977371        0.15824753
 C            2.62663414        1.02428341       -0.24687116
 C            2.76187474       -2.55987979       -0.25741843
 C            3.11748173       -1.29960105       -0.72992725
 C            0.77268488       -3.74834068        0.10699508
 C            1.68323697       -3.27548420       -0.92112974
 C           -1.43943049       -3.11829366        0.93237479
 C           -0.58858381       -3.67134006       -0.10814309
 C           -3.20703064       -1.43178292        0.88979929
 C           -2.57965624       -2.50069381        0.27864167
 C           -3.55170376        0.87949013        1.00474865
 C           -3.52420889       -0.25600108        0.09879691
 C           -2.33770082        2.98227177        1.19219578
 C           -3.29873563        2.14308176        0.50165761
 C           -0.46364838        4.27826052        0.19272865
 C           -1.87261591        3.96600537        0.23477431
 C            1.26049117        3.31929559       -1.08618893
 C            0.00623266        4.05101543       -1.16362664
 C            2.37464262        1.26621168       -1.60114047
 C            1.47504299        2.26765189       -1.96609322
 C            2.95187264       -1.05782907       -2.08685052
 C            2.71566068        0.29853757       -2.53741913
 C            1.19541348       -2.76560552       -2.12291654
 C            2.04972808       -1.92052508       -2.83251122
 C           -1.07705815       -3.19291238       -1.38861061
 C           -2.29280967       -2.43321837       -1.14445890
 C           -0.19015673       -2.74147109       -2.36418616
 C           -2.97267995       -0.11474580       -1.17460434
 C           -2.50218639       -1.24755208       -1.84893520
 C           -3.03894502        2.28683565       -0.91902104
 C           -2.27041709        3.50712270       -1.08838429
 C           -1.08385441        3.46674608       -1.92163807
 C           -2.68982576        1.16483089       -1.66817561
 C            0.50373081        1.99542424       -2.93194625
 C           -0.82371832        2.32004847       -2.66073016
 C           -1.79018396        1.31366679       -2.72302299
 C            1.95359852        0.21930300       -3.77206705
 C            1.56626895       -1.16929925       -3.97069104
 C            0.76312107        1.03686433       -3.90230363
 C           -0.71969259       -1.94262272       -3.37845460
 C           -1.86763804       -1.09935400       -3.07899170
 C           -1.57320853        0.23431405       -3.56862384
 C            0.15401086       -1.20248051       -4.26538899
 C           -0.32511158        0.16890527       -4.31138116
