   70
C70 / DATE: 7/ 1/2024 / Origin: Program Fullerene / C70 from database
 C            1.45797251       -0.09366826        4.56390088
 C            0.67051776       -1.23676100        4.12966404
 C            1.49945237       -2.01480238        3.24070414
 C            2.65336760       -0.05908760        3.74711782
 C            2.80752069       -1.37797298        3.17745324
 C            2.54799067        1.06409094        2.82794553
 C            0.69510973        1.09502895        4.25553396
 C            1.39449711        1.84067707        3.22314181
 C           -0.59428610       -0.73967087        3.63079022
 C           -0.65866385        0.67390111        3.95851730
 C           -1.05320476       -1.15076863        2.37644678
 C            0.95466089       -2.51148689        2.06093967
 C           -0.30815758       -2.06960920        1.62311948
 C            1.84080080       -3.05352699        1.13334361
 C            3.49238012       -1.46594511        1.98030829
 C            3.13592899       -2.53942675        1.07799347
 C            2.79222482        0.83376876        1.47697080
 C            3.58030242       -0.26561121        1.15444700
 C            1.92277328        1.36928040        0.51312801
 C            0.60837207        2.43211292        2.24849964
 C            0.95538935        2.30494035        0.89779107
 C           -1.38722887        1.47953791        3.10504439
 C           -0.73545375        2.58257580        2.55598078
 C           -2.03204278       -0.37013196        1.74679565
 C           -2.35391162        0.86377806        2.32241698
 C           -2.37662577       -0.62516685        0.41225540
 C           -0.75333221       -2.42268803        0.34601916
 C           -1.69951431       -1.62288845       -0.30310235
 C            1.32513033       -3.68288789        0.01128601
 C           -0.03204894       -3.36301335       -0.39198529
 C            2.14622320       -3.76181809       -1.18706309
 C            3.68628099       -2.15646772       -0.20482656
 C            3.66660768       -0.69947862       -0.22093097
 C            3.26339528       -2.84097630       -1.33086975
 C            1.95702163        0.90155376       -0.81132340
 C            2.92279310       -0.04349055       -1.19337599
 C            1.00906616        1.36213284       -1.74461886
 C            0.08328378        2.84332388       -0.05617323
 C            0.01990175        2.27788927       -1.34173149
 C           -1.47599105        3.41677565        1.74362314
 C           -0.96019042        3.65335212        0.40673837
 C           -3.25767413        1.70343389        1.69172447
 C           -2.88246198        3.10374007        1.59863980
 C           -3.33872947        0.17141478       -0.22523390
 C           -3.81455547        1.31485236        0.41316494
 C           -3.49914667        0.08430315       -1.60798882
 C           -1.83110477       -1.70983100       -1.69458932
 C           -2.75179878       -0.90898240       -2.35309824
 C           -0.06102346       -3.30077535       -1.84369429
 C            1.27483532       -3.59677190       -2.33443274
 C           -0.80591618       -2.29195902       -2.44396681
 C            3.05158445       -2.08042133       -2.54669173
 C            2.84485784       -0.64194716       -2.44233959
 C            1.90080003       -2.64763356       -3.22645483
 C            0.93804380        0.77920690       -3.02120377
 C           -0.27871885       -1.59468783       -3.54542587
 C            1.75458461       -0.30337838       -3.32071054
 C            1.09846718       -1.54471685       -3.69661386
 C           -2.32669238       -0.29145479       -3.58827271
 C           -0.27063869        0.81542061       -3.70358305
 C           -0.94179495       -0.45234448       -3.96146629
 C           -1.06698874        2.56273068       -2.19505478
 C           -3.52214056        1.31157050       -2.40280004
 C           -1.27196587        1.77500581       -3.31866276
 C           -2.56375985        1.12989084       -3.46792095
 C           -2.09950381        3.91905556       -0.44357962
 C           -3.30352720        3.60970473        0.31236640
 C           -3.97803997        2.52650288       -0.37339762
 C           -2.19140880        3.21503324       -1.69575310
 C           -3.47389573        2.51566392       -1.72487607
