   70
C70 / DATE: 7/ 1/2024 / Origin: Program Fullerene / C70 from database
 C            1.69874817        0.09279141        4.54869117
 C            0.88502600       -1.10672901        4.47852393
 C            1.48718805       -1.99198557        3.50155262
 C            2.66383665        0.03907158        3.46241764
 C            2.54639088       -1.25066683        2.82995279
 C            2.48042886        1.21377247        2.64312562
 C            0.82985731        1.22680466        4.30146361
 C            1.43620522        2.01838862        3.25226705
 C           -0.49388242       -0.70698085        4.28430083
 C           -0.51261868        0.73244517        4.07252395
 C           -1.29951002       -1.51024265        3.49593947
 C            0.66548935       -2.80803134        2.72678178
 C           -0.72124307       -2.67289732        2.83106941
 C            1.20514103       -3.31622042        1.55016087
 C            2.63236217       -1.34257014        1.44609851
 C            2.26679387       -2.56285396        0.89974331
 C            2.48022038        1.08969465        1.25345386
 C            2.52601046       -0.18237187        0.65749756
 C            1.97616304        2.16245508        0.51558707
 C            0.60139211        2.70908011        2.39036274
 C            1.13737096        3.07861877        1.16556789
 C           -1.22322108        1.27197888        3.00125596
 C           -0.77697575        2.47522659        2.45490015
 C           -2.21295711       -0.88450282        2.55720773
 C           -2.05692525        0.45507662        2.22986294
 C           -1.56868424       -2.96657866        1.68507391
 C           -2.46869987       -1.83809304        1.49629154
 C            0.33498667       -3.83613341        0.50792913
 C           -1.03708387       -3.58467625        0.55910425
 C            2.08853179       -2.68663921       -0.52726025
 C            1.06067622       -3.68775939       -0.74753792
 C            2.31003318       -0.29267851       -0.72577680
 C            2.10077479       -1.54732607       -1.31753731
 C            2.00436580        2.09947295       -0.87767596
 C            2.20541381        0.86619547       -1.50169434
 C            1.53721694        3.17906297       -1.62482895
 C            0.43950092        4.02860113        0.43627121
 C            0.69737830        4.16725404       -0.97818912
 C           -1.59106352        3.09805680        1.51349534
 C           -0.99446977        4.08761624        0.63320396
 C           -2.47380750        0.89193173        0.97139228
 C           -2.45237911        2.25389125        0.70187491
 C           -2.70518535       -1.38432527        0.20178048
 C           -2.55294363       -0.02238893       -0.08545681
 C           -1.75395602       -3.47814975       -0.62980375
 C           -2.61189647       -2.31654813       -0.82233362
 C            0.35758677       -3.66445703       -1.94064952
 C           -1.08821559       -3.75020583       -1.88864436
 C            1.59746666       -1.63703699       -2.61600291
 C            0.69884871       -2.66057251       -2.93679685
 C            2.03332081        0.75642372       -2.88204482
 C            1.66951477       -0.52958803       -3.44997812
 C            0.93399691        2.93129070       -2.91724217
 C            1.28299340        1.77921562       -3.59781280
 C           -0.58960383        4.16070016       -1.66204114
 C           -1.62015725        3.95513370       -0.66853354
 C           -2.34867319        2.69963995       -0.67527798
 C           -0.48158546        3.20602893       -2.74277228
 C           -2.32044520        0.40606208       -1.40461015
 C           -2.09207536        1.76069645       -1.67192399
 C           -1.37565241        2.13858396       -2.81707435
 C           -2.46240980       -1.86809935       -2.19059430
 C           -1.62686650       -2.83566851       -2.87938791
 C           -0.51918491       -2.33842616       -3.66907945
 C           -2.26565295       -0.51747341       -2.45171980
 C            0.58290728       -0.30532785       -4.38633117
 C            0.22813131        1.09580264       -4.32168508
 C           -1.12653731        1.18967687       -3.80113252
 C           -0.63461779       -1.06945594       -4.21132049
 C           -1.62308927       -0.16308099       -3.63597498
