   70
C70 / DATE: 7/ 1/2024 / Origin: Program Fullerene / C70 from database
 C            1.25166143        0.08903424        5.38328128
 C            0.51038387       -1.09940669        5.00421271
 C            1.42344684       -1.99075188        4.32781118
 C            2.54952319        0.02579711        4.72841938
 C            2.64150799       -1.24742377        4.04472026
 C            2.70763050        1.23698892        3.95448718
 C            0.54322827        1.24146668        4.85045326
 C            1.50195868        2.03770588        4.12612571
 C           -0.67826390       -0.67614427        4.28986391
 C           -0.62982274        0.76573150        4.13870239
 C           -1.12171734       -1.41153437        3.19954170
 C            0.98509464       -2.58747639        3.08268186
 C           -0.33684311       -2.45388420        2.67967455
 C            2.83996490       -1.27479080        2.60193363
 C            2.00339531       -2.34128420        2.08570351
 C            2.95817255        1.14449468        2.52380217
 C            2.93880422       -0.08961421        1.87050191
 C            1.12838367        2.52325531        2.81516348
 C            2.23537812        2.24659213        1.92595890
 C           -0.96400180        1.30805167        2.89173662
 C           -0.15710783        2.30528374        2.32109878
 C           -2.02133111       -0.78515573        2.34165548
 C           -1.82686395        0.57361118        2.06251265
 C           -2.66946406       -1.59061626        1.41925409
 C           -0.64600851       -2.90262333        1.39882992
 C           -1.97498891       -2.79431771        1.01776745
 C            1.59517459       -2.28080689        0.76021482
 C            0.35457321       -2.82001565        0.41497490
 C            2.61436519       -0.11318790        0.51048053
 C            2.13815789       -1.29784515       -0.06175890
 C            1.94298367        2.18649301        0.57605150
 C            2.39726262        1.09738202       -0.15574933
 C           -0.36448141        2.62989133        0.98315245
 C            0.75741461        2.77134046        0.15935343
 C           -2.17699172        1.09319132        0.80760025
 C           -1.57467942        2.28171928        0.39575636
 C           -3.22039004       -0.99632832        0.22183104
 C           -2.81779530        0.27966013       -0.13653036
 C           -2.34317461       -3.08703498       -0.34589237
 C           -3.23717300       -2.02974074       -0.79290036
 C            0.01472532       -2.85914379       -0.94131697
 C           -1.28569020       -3.18927799       -1.32288441
 C            1.79809758       -1.30359521       -1.41163932
 C            0.85177905       -2.22891467       -1.86662013
 C            2.08708663        1.07076154       -1.51304136
 C            2.05910696       -0.15921701       -2.16303712
 C            0.56222672        2.91067312       -1.20832894
 C            1.36760657        2.14111342       -2.05496661
 C           -1.83627652        2.78033136       -0.87617270
 C           -0.70815001        3.28733097       -1.62858128
 C           -2.81925341        0.64240805       -1.48522653
 C           -2.61355416        1.97689354       -1.79859036
 C           -2.84388342       -1.67965219       -2.14461762
 C           -1.82403656       -2.63248585       -2.54906188
 C           -2.66969204       -0.33869455       -2.47851598
 C            0.47897545       -2.22108303       -3.21009494
 C           -0.93636867       -2.25207373       -3.53854995
 C            1.88608360       -0.19242700       -3.54200616
 C            1.10441596       -1.26938502       -4.11314530
 C            1.18615369        2.20239614       -3.43517435
 C            1.51165699        1.03168751       -4.23064721
 C           -1.05289829        3.21852253       -3.03350882
 C           -2.20888425        2.34077548       -3.14506917
 C           -0.04895571        2.75050361       -3.96626004
 C           -1.98796884       -0.03905195       -3.66339111
 C           -1.20695679       -1.02782863       -4.26745431
 C            0.04491586       -0.66589284       -4.90603286
 C            0.36290465        0.73659280       -5.07604096
 C           -1.86612846        1.28587833       -4.07651491
 C           -0.66440484        1.71514789       -4.77598660
