   70
C70 / DATE: 7/ 1/2024 / Origin: Program Fullerene / C70 from database
 C            1.64346819       -0.24634535        4.89500595
 C            0.79369623       -1.42123593        4.95187483
 C            1.25804642       -2.35550843        3.94169094
 C            2.63956022       -0.47046599        3.86332754
 C            2.38112138       -1.75920771        3.24959487
 C            2.64821776        0.69576454        3.00105615
 C            0.82604267        0.87547735        4.46629089
 C            1.49878943        1.51261296        3.35274664
 C           -0.54919647       -1.01609078        4.57676953
 C           -0.52443835        0.39866443        4.25619484
 C            0.11262723       -2.75140400        3.15205889
 C           -1.01903190       -1.93336504        3.55249527
 C            0.28354118       -2.97279423        1.79507980
 C            2.41874697       -1.83139881        1.86077366
 C            1.50133804       -2.64517391        1.18293584
 C            2.90945247        0.51030085        1.64929510
 C            3.03320709       -0.79255502        1.16541223
 C            2.48987015        1.50062531        0.76614716
 C            0.73114161        2.02526586        2.31210340
 C            1.36149299        2.25759155        1.09645837
 C           -1.19703953        0.80800536        3.11229563
 C           -0.64993287        1.81596656        2.30824667
 C           -1.84378659       -1.43203317        2.54627207
 C           -2.12336149       -0.06541810        2.54834540
 C           -0.85865473       -2.99893977        1.01146246
 C           -1.90545964       -2.12329471        1.33146999
 C           -0.72804086       -3.49384902       -0.27293784
 C            1.61568834       -2.77982260       -0.20972037
 C            0.55079803       -3.32098413       -0.93484638
 C            3.28312867       -0.97171898       -0.18632353
 C            2.56923977       -2.02290561       -0.89168239
 C            2.90099723        1.42497289       -0.56242247
 C            3.32869977        0.19315128       -1.05651057
 C            2.47537582        2.40561517       -1.45197180
 C            0.65063422        2.90199564        0.09125743
 C            1.31030610        3.19544641       -1.09831580
 C           -1.39423473        2.26719947        1.21323013
 C           -0.74581888        2.90003730        0.14502367
 C           -2.97735211        0.43923125        1.58383634
 C           -2.67000735        1.73854388        1.02007421
 C           -2.77531610       -1.66085333        0.33429914
 C           -3.38547743       -0.42137561        0.48810685
 C           -1.77566167       -3.24831197       -1.23643639
 C           -2.76518887       -2.23909433       -0.92988877
 C            0.28115806       -2.83186007       -2.28001731
 C           -1.14577246       -2.89368193       -2.49730491
 C            2.26676865       -1.52921920       -2.22814803
 C            2.91454325       -0.24047884       -2.38282781
 C            0.99630739       -1.73938276       -2.75368990
 C            2.38131358        2.08233252       -2.86457825
 C            2.37098652        0.68628702       -3.25639565
 C            0.55496248        3.45446803       -2.31159503
 C            1.18047576        2.70488835       -3.38979188
 C           -1.48813531        3.29745771       -0.96898373
 C           -0.82857801        3.50578812       -2.24788399
 C           -3.28551667        1.79294751       -0.29207193
 C           -3.60220780        0.42201416       -0.68027088
 C           -2.77190636        2.66779927       -1.23311801
 C           -2.89998792       -1.38875563       -2.10265551
 C           -1.81241466       -1.72019366       -3.01065576
 C           -3.25880142       -0.05081169       -1.95007477
 C            0.33995589       -0.69863412       -3.43117156
 C            1.07724744        0.40700427       -3.85961949
 C            0.41170482        1.68126300       -4.07877898
 C           -1.05944116       -0.68425909       -3.54955672
 C           -1.60170836        2.80671008       -3.26184870
 C           -2.78922298        2.26645544       -2.62420805
 C           -2.86558093        0.85164120       -2.93793733
 C           -0.97190246        1.73823157       -4.02256159
 C           -1.72147574        0.51966724       -3.77442981
