   70
C70 / DATE: 7/ 1/2024 / Origin: Program Fullerene / C70 from database
 C            1.46112344        0.12988611        4.79641310
 C            0.70527474       -1.09570175        4.64497925
 C            1.60985064       -2.07842873        4.09176430
 C            2.67028828       -0.00021423        3.99401850
 C            2.76746828       -1.37303171        3.56066714
 C            2.63205345        1.03408687        2.98398325
 C            0.67089124        1.20216675        4.22322285
 C            1.52525651        1.91296111        3.30337475
 C           -0.51473481       -0.79167302        3.90771874
 C           -0.55422673        0.64420946        3.68902447
 C           -0.91244492       -1.64109245        2.87604591
 C            1.10832618       -2.91428771        3.03010598
 C           -0.24251891       -2.86147030        2.70960980
 C            2.83229261       -1.65270006        2.13383351
 C            2.04743595       -2.84618066        1.92424082
 C            2.83275449        0.71672395        1.63682179
 C            2.71885000       -0.61537323        1.21398728
 C            2.55832988        1.72506070        0.71516767
 C            0.93611688        2.54417759        2.22713163
 C            1.76517093        2.79084749        1.15080174
 C           -1.00049889        1.12727734        2.46284428
 C           -0.40492121        2.27696721        1.93358715
 C           -1.65247035       -1.11028156        1.80836784
 C           -1.69696005        0.27525521        1.60649144
 C           -2.16180918       -1.97254089        0.83425227
 C           -0.61501119       -3.66713339        1.64913384
 C           -1.78808750       -3.31502338        0.88510739
 C            1.52974817       -3.11738463        0.66484717
 C            0.41954353       -3.95250766        0.66910343
 C            2.23027788       -0.89801345       -0.06874004
 C            1.61681289       -2.13519841       -0.33968855
 C            2.57353713        1.41266680       -0.64253568
 C            2.21623733        0.11636194       -1.03263776
 C            2.49704080        2.46523073       -1.55017103
 C            1.29451817        3.69746410        0.22281176
 C            1.88660915        3.69735762       -1.09596983
 C           -0.92329091        2.81887711        0.75455168
 C           -0.14550924        3.75914240        0.06547958
 C           -2.20077522        0.78885606        0.41155458
 C           -1.91517040        2.11924762        0.06358849
 C           -2.74654219       -1.44768228       -0.32668656
 C           -2.86817061       -0.06326394       -0.47769173
 C           -2.91476278       -2.25530858       -1.45791817
 C           -1.66543375       -4.07574093       -0.34064379
 C           -0.23981867       -4.24539574       -0.57583541
 C           -2.22631090       -3.52323769       -1.54468483
 C            0.87240620       -2.28770008       -1.52247315
 C            0.09535832       -3.43002011       -1.71704620
 C           -1.12755544       -3.32126108       -2.47983573
 C            1.56012335       -0.10307256       -2.25081920
 C            0.70962906       -1.19659842       -2.37915341
 C            2.01992489        2.21581674       -2.89226324
 C            1.46776143        0.91518424       -3.19344972
 C            0.84925420        4.06451893       -2.04137991
 C           -0.42127096        4.06095095       -1.33008123
 C            1.00746951        3.21594375       -3.20502008
 C           -2.40731853        2.65981814       -1.12081593
 C           -1.53863354        3.49719902       -1.92825454
 C           -3.33491088        0.42614731       -1.69877949
 C           -3.15037240        1.82272687       -2.03179890
 C           -2.72559399       -1.66001510       -2.76205545
 C           -1.39758504       -2.07896374       -3.16750974
 C           -0.40726218       -1.10694377       -3.22897244
 C           -3.03874449       -0.32396672       -2.90528343
 C            0.19924350        1.11904371       -3.86713153
 C           -0.15709348        2.52347855       -3.72044518
 C           -1.41560471        2.85843238       -3.23255126
 C           -2.47326347        1.87380542       -3.32203487
 C           -0.77804254        0.13999320       -3.73047206
 C           -2.12425895        0.50952468       -3.66380332
