   70
C70 / DATE: 7/ 1/2024 / Origin: Program Fullerene / C70 from database
 C            1.02268128        0.01619501        4.83739428
 C            2.33871441       -0.29840950        4.34104395
 C            2.34261544       -1.72451173        4.05864648
 C            0.23796718       -1.21128270        4.76980578
 C            0.95640679       -2.09946073        3.88359984
 C           -1.10741213       -0.83233128        4.41687497
 C            0.25147002        1.02835281        4.14868665
 C           -1.11923531        0.61771003        4.32271388
 C            0.64911697        1.47768882        2.88266260
 C            2.78710450        0.35347046        3.12863429
 C            1.86584336        1.04166498        2.33528641
 C            3.24125501       -1.92258226        2.95124532
 C            3.66686330       -0.60334803        2.49788939
 C            2.74065297       -2.60197208        1.77644201
 C            0.47198673       -2.33095449        2.58846470
 C            1.36118627       -2.74255629        1.58420591
 C           -1.66054096       -1.32508993        3.17151036
 C           -0.83094260       -1.94007935        2.23943750
 C           -2.03977610        0.95616563        3.27231915
 C           -2.54975343       -0.28373703        2.71012509
 C           -0.31290247        2.06048806        2.04233763
 C           -1.67495558        1.93849247        2.36807927
 C            0.05033882        2.42974648        0.73935678
 C            2.07349370        1.12563090        0.95237739
 C            1.21878727        1.90590078        0.17589487
 C            3.70130150       -0.65871544        1.05238996
 C            3.52460930       -2.05359702        0.69549697
 C            3.00368940        0.29190526        0.31359253
 C            3.11159339       -2.33062751       -0.58994617
 C            0.89695027       -2.91650835        0.27508909
 C            1.83803678       -3.00464361       -0.75464588
 C           -1.20040730       -1.90425697        0.89514241
 C           -0.42612628       -2.59274227       -0.03564046
 C           -2.92007567       -0.25025770        1.37060020
 C           -2.29016751       -1.11936216        0.47214493
 C           -2.60657641        2.15754778        1.37122618
 C           -3.32815092        0.98905500        0.89350727
 C           -0.88399119        3.07373021       -0.07997806
 C           -2.23331968        2.93068518        0.21315090
 C           -0.52609076        3.43756357       -1.37530572
 C            1.41657182        1.96481207       -1.20477663
 C            0.66002303        2.84979483       -1.96540351
 C            2.87165729        0.06001791       -1.05513406
 C            3.07898120       -1.23548334       -1.53517947
 C            2.15620558        0.96394502       -1.83591734
 C            1.43062626       -2.76898870       -2.13089546
 C            2.28839753       -1.71120987       -2.65304186
 C           -0.88142254       -2.72044886       -1.34511129
 C            0.07883721       -2.76574534       -2.43517941
 C           -2.56869037       -1.00264418       -0.89734353
 C           -2.01046612       -1.92008558       -1.78143640
 C           -3.54741369        1.16765854       -0.52337047
 C           -3.15028187        2.53119101       -0.83892419
 C           -3.20504406        0.14330939       -1.39599661
 C           -1.55606375        3.48904192       -2.40532560
 C           -2.83428699        2.84784698       -2.14965299
 C            0.36323203        2.53162307       -3.35415129
 C           -1.00653206        2.92498106       -3.62562687
 C            1.87718209        0.62859010       -3.16114285
 C            1.76515903       -0.77138418       -3.52432736
 C            0.84602162        1.34436360       -3.88531591
 C           -0.41377256       -1.90856317       -3.50113650
 C           -1.77967253       -1.54167515       -3.16666665
 C            0.43450768       -0.96498835       -4.07331772
 C           -0.08140458        0.34982632       -4.41971942
 C           -3.14860463        0.43989000       -2.75703008
 C           -3.03283651        1.83101109       -3.16889377
 C           -1.93691520        1.92551775       -4.11789298
 C           -2.30462510       -0.34635921       -3.63564447
 C           -1.45161021        0.57918828       -4.36830395
