   70
C70 / DATE: 7/ 1/2024 / Origin: Program Fullerene / C70 from database
 C            1.25689737       -0.11620234        4.47080574
 C            2.58938245       -0.31238795        3.93204011
 C            2.56913046       -1.51052618        3.10828574
 C            0.45999485       -1.27125542        4.10463896
 C            1.25954207       -2.11461781        3.23417886
 C           -0.81895773       -0.79792849        3.59763251
 C            0.51423290        1.07423603        4.08949414
 C           -0.72068602        0.64323041        3.45279529
 C            1.19726394        2.15705933        3.55569753
 C            3.17659513        0.75393125        3.14754213
 C            2.61043929        2.02115019        3.21377639
 C            3.03499619       -1.15594942        1.78206534
 C            3.52818132        0.20665972        1.84150350
 C            2.28667639       -1.55957941        0.68085133
 C            0.63922521       -2.61024725        2.09719802
 C            1.27947987       -2.51028660        0.85605894
 C           -1.41496945       -1.51859175        2.56936094
 C           -0.74784243       -2.64728490        2.10445933
 C           -2.24245822       -0.84096548        1.67574937
 C           -1.12797274        1.22228222        2.25064195
 C           -2.00471765        0.51811821        1.43310559
 C            0.56963641        2.91346500        2.48780705
 C           -0.43615820        2.31770853        1.72703324
 C            2.87453753        2.93886835        2.12587879
 C            1.62979042        3.62487060        1.81536362
 C            3.41950769        1.01209901        0.71284867
 C            3.37657808        2.39640289        0.87819016
 C            2.28835692       -0.77575216       -0.47216103
 C            2.96232262        0.45370971       -0.48492988
 C            1.49988111       -1.16429674       -1.55950356
 C            0.60475726       -3.00405639       -0.26364492
 C            0.76033451       -2.34850984       -1.49457424
 C           -1.35684528       -3.40254304        1.12137575
 C           -0.54361833       -3.76127931       -0.02047215
 C           -2.95695254       -1.59605742        0.74225008
 C           -2.62102405       -2.93975719        0.58372011
 C           -3.68414393       -0.94248921       -0.25070654
 C           -2.43724137        1.09818711        0.24698265
 C           -3.46678755        0.47933604       -0.45141080
 C           -0.60389830        2.66982263        0.37583230
 C           -1.65174682        2.08998771       -0.36085246
 C            1.55951983        3.74842327        0.37869925
 C            2.79838457        3.21133664       -0.16823622
 C            0.36709784        3.45267167       -0.27468813
 C            2.90142642        1.26007021       -1.61926779
 C            2.76707384        2.70146339       -1.45490349
 C            1.30295389       -0.29540584       -2.63595873
 C            2.06228019        0.86037899       -2.73480288
 C            0.13666444       -0.40045770       -3.39875152
 C           -0.03785112       -2.69388368       -2.58901394
 C           -0.46477388       -1.64833228       -3.50223791
 C           -1.45677291       -4.08506194       -1.09666261
 C           -2.76741344       -3.57473613       -0.71431894
 C           -1.15742617       -3.59965628       -2.42107098
 C           -3.85792067       -1.55969737       -1.56220471
 C           -1.91163990       -1.74054754       -3.63585646
 C           -3.28581340       -2.79893767       -1.82120533
 C           -2.34594591       -2.93129745       -2.92472919
 C           -3.62462277        0.75668280       -1.85843660
 C           -3.74151473       -0.51146931       -2.55937495
 C           -2.67079848       -0.58271741       -3.54127626
 C           -1.74681416        2.31909412       -1.74496970
 C           -0.61088084        0.75159686       -3.67799378
 C           -2.59789021        1.53060030       -2.51103333
 C           -1.99371081        0.69874818       -3.53930618
 C            0.41261621        3.46116613       -1.66155438
 C            1.67027705        3.12113105       -2.30325414
 C            1.40772264        2.04698528       -3.23805043
 C           -0.64097325        2.82368233       -2.41254944
 C           -0.02497363        1.98760873       -3.43389975
