   70
C70 / DATE: 7/ 1/2024 / Origin: Program Fullerene / C70 from database
 C            1.17808414       -0.07467194        4.61784174
 C            2.49948236       -0.29384271        4.06237796
 C            2.51262381       -1.62134485        3.47525751
 C            0.36602436       -1.24245340        4.30751604
 C            1.14802579       -2.12419476        3.47559234
 C           -0.90001081       -0.77885332        3.80084439
 C            0.43118329        1.10541977        4.21698189
 C           -0.90335982        0.67554076        3.84381909
 C            1.05362456        2.09144231        3.46720050
 C            3.00825492        0.63410677        3.06837170
 C            2.36740914        1.85087590        2.87803329
 C            3.21523997       -1.54248979        2.20766571
 C            3.41605613       -0.13404192        1.90241683
 C            2.80234479       -2.38406342        1.19081037
 C            0.61481757       -2.59636990        2.27696914
 C            1.51660650       -3.05177625        1.32517592
 C           -1.47076940       -1.40401657        2.69965725
 C           -0.68341859       -2.22757331        1.87397802
 C           -2.58371637       -0.77678492        2.16562278
 C           -1.61845602        1.36185220        2.86168697
 C           -2.66476194        0.67272244        2.25022345
 C            0.26817408        2.84250971        2.50499476
 C           -1.04096466        2.46534405        2.21566576
 C            2.36736775        2.44283167        1.55288797
 C            1.15090814        3.22500725        1.41470165
 C            3.12085613        0.34996510        0.62465831
 C            2.81732539        1.70630599        0.46204608
 C            2.88092813       -1.91369734       -0.17730705
 C            2.91198886       -0.55005990       -0.43113141
 C            1.05225035       -3.35089121       -0.00555311
 C            1.97855651       -2.74032900       -0.94756217
 C           -1.15171854       -2.59436260        0.59198218
 C           -0.30182927       -3.29033888       -0.28935182
 C           -3.08237702       -1.17839060        0.87528382
 C           -2.41958661       -2.16021322        0.15776559
 C           -3.25060222        1.16145221        1.01596238
 C           -3.53366053        0.01367553        0.17339349
 C           -1.62308883        2.98426989        1.06088281
 C           -2.75423313        2.31447715        0.44333438
 C            0.61860094        3.42043318        0.14282898
 C           -0.76474448        3.48826774       -0.00253751
 C            2.52717439        2.19405269       -0.80489798
 C            1.40960218        3.11592988       -0.96271940
 C            2.45965740       -0.08807775       -1.66741198
 C            2.49709890        1.27637556       -1.92373705
 C            1.46436998       -2.25597317       -2.14368796
 C            1.76166354       -0.94442092       -2.53360526
 C           -0.63420339       -3.39973427       -1.63465071
 C            0.29822963       -2.85825456       -2.61146378
 C           -2.79465010       -2.30321635       -1.17430968
 C           -1.96969975       -3.07724557       -2.06546976
 C           -3.35048539        0.08383506       -1.20667265
 C           -3.25613681       -1.12487964       -1.89537568
 C           -2.58325203        2.37400851       -0.99657352
 C           -1.38421009        3.14887354       -1.27479023
 C           -2.87119722        1.26538484       -1.79126825
 C            0.79305592        2.84681369       -2.25351457
 C            1.61609307        1.84688512       -2.92349725
 C           -0.59706624        2.80205599       -2.36791673
 C            1.17995663       -0.43017052       -3.69478651
 C            1.03841834        1.00817518       -3.85998646
 C           -0.47037823       -2.23917047       -3.67591914
 C           -1.87806521       -2.36655494       -3.33111101
 C           -2.69936399       -1.17022959       -3.23529501
 C           -0.01650696       -1.05462195       -4.23661905
 C           -2.35690565        1.24938424       -3.08690206
 C           -1.17735565        2.04930705       -3.38638720
 C           -0.32585617        1.27366949       -4.26955597
 C           -2.25333075        0.00199034       -3.82364175
 C           -0.97609173        0.00006874       -4.51922137
