   70
C70 / DATE: 7/ 1/2024 / Origin: Program Fullerene / C70 from database
 C            1.00374662       -0.00959110        4.65516069
 C            2.27840124       -0.36426731        4.07201292
 C            2.20779158       -1.76480156        3.69037532
 C            0.16550269       -1.19889871        4.62562697
 C            0.80925353       -2.14803380        3.74167642
 C           -1.17799810       -0.77176475        4.31920504
 C            0.23779371        1.06153538        4.05036237
 C           -1.15155670        0.67427464        4.14924787
 C            0.67025296        1.64046727        2.86050915
 C            2.73791672        0.36738273        2.91004760
 C            1.95564090        1.37893150        2.35923278
 C            2.91666815       -1.91442630        2.43336305
 C            3.35019163       -0.59037469        2.01062052
 C            2.38313278       -2.76670070        1.48045775
 C            0.18163420       -2.55352568        2.55994584
 C            0.97225543       -3.12250260        1.56490595
 C           -1.82758391       -1.31744096        3.14662502
 C           -1.11106835       -2.10442020        2.24313953
 C           -2.03329026        0.99169303        3.03991458
 C           -2.65235983       -0.25099246        2.62110202
 C           -0.26597878        2.29185640        2.05148156
 C           -1.59999672        1.86760681        2.04541216
 C            0.19667995        3.08623961        1.01387624
 C            2.28763850        1.83060597        1.08314680
 C            1.54902183        2.87473531        0.53625354
 C            3.37766413       -0.28707327        0.65205707
 C            3.06943771        1.01859797        0.25335605
 C            2.68505653       -2.51780533        0.08515929
 C            3.30546067       -1.32873692       -0.28093522
 C            0.46133849       -3.22842884        0.21244200
 C            1.55874260       -2.98408384       -0.70448440
 C           -1.59275558       -2.19531969        0.92917263
 C           -0.78164289       -2.70364917       -0.09033224
 C           -3.06539178       -0.33896054        1.30594936
 C           -2.75269377       -1.49109339        0.58899144
 C           -2.32366699        1.89278869        0.84654728
 C           -3.22429518        0.84680064        0.60017428
 C           -0.65233854        3.31764838       -0.13910660
 C           -1.91274048        2.73647400       -0.19485285
 C            1.56033967        3.10470030       -0.89847761
 C            0.18512123        3.28351023       -1.32828593
 C            3.29468812        1.39268760       -1.06765147
 C            2.42795447        2.37743420       -1.69238501
 C            3.34216409       -1.02517109       -1.63677456
 C            3.54656239        0.35148793       -2.04145443
 C            1.29916803       -2.36186758       -1.92288140
 C            2.31596369       -1.59460351       -2.49827640
 C           -1.07221789       -2.40484773       -1.41947976
 C           -0.02726332       -2.16396399       -2.32253674
 C           -3.26491569       -1.61250421       -0.70025706
 C           -2.38159506       -2.07580233       -1.75428319
 C           -3.92772481        0.78734361       -0.59444361
 C           -4.04966474       -0.50965894       -1.23552776
 C           -2.51736190        2.64304517       -1.44491665
 C           -3.65402369        1.76645355       -1.62139623
 C           -0.28848055        2.63417899       -2.46783471
 C           -1.67041160        2.52423197       -2.62315632
 C            1.93834667        1.81294720       -2.93786863
 C            2.70988976        0.60967342       -3.20139543
 C            2.00304323       -0.61555236       -3.52823525
 C            0.57036764        1.81104928       -3.20909658
 C           -0.27903973       -1.47336036       -3.50670312
 C            0.70090667       -0.52113846       -3.98971114
 C            0.04944863        0.77933115       -3.99268775
 C           -2.65072775       -1.29161975       -2.94815814
 C           -3.71131399       -0.35031608       -2.63853098
 C           -3.48995665        1.06234840       -2.88345402
 C           -2.22977022        1.48393508       -3.46858424
 C           -1.58514709       -0.88389470       -3.73656941
 C           -1.38021432        0.53519648       -4.01682626
