   70
C70 / DATE: 7/ 1/2024 / Origin: Program Fullerene / C70 from database
 C            1.18007936       -0.04561770        4.31573120
 C            2.40773302       -0.31687808        3.61242924
 C            2.36939867       -1.71135156        3.20165313
 C            0.35481943       -1.24527995        4.23987339
 C            0.99768717       -2.15027764        3.31509230
 C           -0.99558163       -0.81059212        3.95832418
 C            0.35395712        1.05364873        3.86455705
 C           -1.00411767        0.63321105        4.13126473
 C            0.62883471        1.69015546        2.65009279
 C            2.71331976        0.46319782        2.43108046
 C            1.76699415        1.34532551        1.90777134
 C            2.99434015       -1.78796601        1.89928009
 C            3.39304938       -0.43849669        1.52623927
 C            2.42088723       -2.58972607        0.91710391
 C            0.33484284       -2.52519484        2.15164066
 C            1.08775707       -2.99964751        1.07188559
 C           -1.68490515       -1.35967804        2.87865013
 C           -1.01037082       -2.17422409        1.95628458
 C           -2.87228383       -0.73920348        2.49269486
 C           -2.03068639        1.35407228        3.55200048
 C           -3.13009522        0.61045198        2.96440084
 C           -0.39718984        2.41184164        2.03785313
 C           -1.67899528        2.39672094        2.60359478
 C           -0.22124288        2.92725322        0.75161352
 C            1.83361083        1.66200779        0.54763447
 C            0.86811314        2.50206450       -0.02388493
 C            3.42411449       -0.12418684        0.17644936
 C            2.81207439        1.05449944       -0.25185361
 C            2.94955899       -2.45802044       -0.36289520
 C            3.54078901       -1.18120877       -0.72237168
 C            2.21813583       -2.95298385       -1.51446351
 C            0.41836490       -3.60238225        0.01083212
 C            1.01074099       -3.60024795       -1.31733548
 C           -1.61778298       -2.46191666        0.73159800
 C           -1.00463711       -3.35878717       -0.13480891
 C           -3.29929559       -0.80833985        1.10552451
 C           -2.57303192       -1.58426032        0.22291641
 C           -3.64089020        1.38842896        1.85022331
 C           -2.84108728        2.59608720        1.75481109
 C           -3.71763563        0.51900012        0.68791267
 C           -1.30528621        3.56153529        0.14523712
 C           -2.64323463        3.13817852        0.49976577
 C           -1.32410446        3.73116431       -1.28904831
 C            0.96894171        2.87859678       -1.37399494
 C           -0.15826916        3.34564241       -2.04382811
 C            2.91913449        1.40086093       -1.59185069
 C            1.98895406        2.35375125       -2.15969989
 C            3.29263820       -0.95222781       -2.13277023
 C            2.35086872       -1.97059667       -2.58541703
 C            3.14863869        0.35187954       -2.57658302
 C            1.24368299       -1.61081002       -3.36334225
 C           -0.05166517       -3.40474638       -2.28260493
 C           -1.29937970       -3.26420464       -1.55330528
 C            0.04208153       -2.29978720       -3.21906752
 C           -2.50575228       -1.19165145       -1.11143337
 C           -1.97271935       -2.07320944       -2.03948289
 C           -1.19861519       -1.54246720       -3.14280263
 C           -3.29297275        1.01850322       -0.54320985
 C           -3.12887679        2.39746112       -0.65236046
 C           -2.44310281        2.94546548       -1.79853147
 C           -2.63253460        0.16106442       -1.43743224
 C           -0.64040826        2.60422473       -3.19655089
 C           -1.15900560       -0.16726623       -3.34098751
 C           -1.90983878        2.03910947       -2.79048822
 C           -1.99163776        0.66474592       -2.58376658
 C            1.65825081        1.89813529       -3.50121727
 C            2.26790870        0.59725904       -3.69701228
 C            1.20887438       -0.35760839       -3.97005498
 C            0.25723391        1.79169513       -3.86531420
 C           -0.04917791        0.37380380       -3.99424611
