   70
C70 / DATE: 7/ 1/2024 / Origin: Program Fullerene / C70 from database
 C            1.57486343        0.08707288        4.39888763
 C            0.76647141       -1.10612145        4.22648990
 C            1.52605721       -2.03015168        3.41683379
 C            2.67338439        0.01500419        3.44888400
 C            2.67470720       -1.30925185        2.88524306
 C            2.55778216        1.13345618        2.54413207
 C            0.75682438        1.22620683        4.03388761
 C            1.46564937        1.96629180        3.01649952
 C           -0.53647546       -0.70489089        3.74364923
 C           -0.56861342        0.74854220        3.70711058
 C           -1.09313584       -1.41214761        2.68148949
 C            0.84621621       -2.87476509        2.54637426
 C           -0.50442042       -2.61473284        2.26579352
 C            1.62524323       -3.49848194        1.57648690
 C            2.97052099       -1.47707824        1.53807320
 C            2.76342915       -2.76171306        1.05314530
 C            2.67898637        0.92537290        1.16790107
 C            2.84709799       -0.37767626        0.65941981
 C            2.21036981        1.93718169        0.32364632
 C            0.72468218        2.62740292        2.05435902
 C            1.36743300        2.91519723        0.86602188
 C           -1.24257040        1.36037229        2.65900278
 C           -0.66520050        2.46533045        2.01898259
 C           -2.01438989       -0.76515177        1.85064310
 C           -2.19582616        0.61651961        1.97575284
 C           -2.55099769       -1.43741518        0.75018792
 C           -1.16034365       -3.37823991        1.30368852
 C           -2.25692798       -2.78149229        0.56055213
 C            0.99493155       -4.19820726        0.47451123
 C           -0.38843643       -4.19601956        0.37936857
 C            2.84702938       -3.00956877       -0.36229845
 C            1.79309770       -3.94839831       -0.71614781
 C            2.75575923       -0.58551565       -0.73082875
 C            2.75899204       -1.87919721       -1.25324858
 C            2.24846216        1.74595939       -1.05675118
 C            2.29384705        0.44436644       -1.55515752
 C            1.89390319        2.79602999       -1.90166710
 C            0.75432695        3.83593909        0.03752027
 C            1.16974624        3.91886782       -1.34377681
 C           -1.38285110        3.10097205        0.99501893
 C           -0.69446242        3.91996649        0.08985566
 C           -3.03071105        1.28437622        1.09079607
 C           -2.65105222        2.62022656        0.66372234
 C           -3.05521485       -0.70097750       -0.32138511
 C           -3.53924412        0.57470563       -0.06826367
 C           -2.67065516       -1.03420668       -1.62473804
 C           -2.20263025       -3.28379696       -0.79796681
 C           -1.00517201       -4.09262385       -0.93236468
 C           -2.21883745       -2.32131162       -1.88311698
 C            1.14564151       -3.45542738       -1.92020366
 C            1.79360340       -2.20882760       -2.28541691
 C           -0.23101960       -3.56426334       -2.04438424
 C           -0.98067493       -2.46319407       -2.62471577
 C            1.58223272        0.11078893       -2.71679869
 C            1.05352058       -1.16826810       -2.82526425
 C           -0.32534036       -1.30334919       -3.03043662
 C            1.28674570        2.48812425       -3.17904660
 C            0.98165069        1.10620597       -3.46939037
 C           -0.01659974        4.14344004       -2.15297008
 C           -1.17384337        4.07844318       -1.27768742
 C            0.05230071        3.24880492       -3.29072185
 C           -3.16885474        2.81116120       -0.67997741
 C           -3.62983225        1.52109236       -1.16491620
 C           -2.30272866        3.38358024       -1.69041171
 C           -2.29008943       -0.01703584       -2.50095881
 C           -1.08880606       -0.14494086       -3.21012087
 C           -0.44446386        0.99104025       -3.69973117
 C           -1.03211653        2.30713947       -3.51478544
 C           -2.91334973        1.22243891       -2.38903883
 C           -2.20962154        2.42681925       -2.78924273
