   70
C70 / DATE: 7/ 1/2024 / Origin: Program Fullerene / C70 from database
 C            1.19490703        0.11042470        4.33794606
 C            2.50242353       -0.16344893        3.78526617
 C            2.55615883       -1.58536060        3.50899419
 C            0.38088206       -1.08640500        4.17134968
 C            1.19118524       -2.07915438        3.50423666
 C           -0.86498814       -0.68458820        3.55809453
 C            0.44095141        1.21643353        3.78983954
 C           -0.92453297        0.76150499        3.60091671
 C            1.00385189        2.01302055        2.79792657
 C            2.90052020        0.53034096        2.57321041
 C            2.06469705        1.50592403        2.03501425
 C            3.34195174       -1.76783234        2.30756710
 C            3.49783555       -0.45390215        1.68698801
 C            3.01787721       -2.84105513        1.49424059
 C            0.71738085       -2.69711559        2.34824271
 C            1.64938926       -3.34772573        1.54324365
 C           -1.29732511       -1.31722288        2.40458357
 C           -0.51112805       -2.30712111        1.79174810
 C           -2.31202155       -0.70480596        1.67849864
 C           -1.70236239        1.42641456        2.65715961
 C           -2.50990686        0.67820753        1.79307333
 C            0.16082770        2.95406677        2.22368489
 C           -1.26915820        2.68814968        2.25091718
 C            0.47364505        3.48912050        0.91457832
 C            2.10497398        1.74586899        0.65880979
 C            1.43117445        2.85018518        0.13371699
 C            3.33030082       -0.32248502        0.30719918
 C            2.65590581        0.79004758       -0.20550820
 C            3.39587252       -2.76245146        0.10112637
 C            3.49557223       -1.44802649       -0.50290206
 C            1.27791418       -3.75962717        0.20366870
 C            2.42306067       -3.52184266       -0.65817919
 C           -0.92054784       -2.84390696        0.56165144
 C            0.01077477       -3.45823878       -0.28171386
 C           -2.91728122       -1.42267332        0.65765715
 C           -2.18675749       -2.52773082        0.06696276
 C           -3.62701722       -0.72724761       -0.40103494
 C           -3.29255819        1.34955755        0.85391349
 C           -3.79718864        0.64635972       -0.31255247
 C           -1.86277335        3.32200538        1.08585653
 C           -0.78228711        3.91822496        0.31464574
 C           -2.91110421        2.68782604        0.43435753
 C           -0.87920034        3.99797037       -1.06800604
 C            1.43445478        3.06327166       -1.24146707
 C            0.31175190        3.75091441       -1.85895013
 C            2.32528907        0.81382226       -1.56067370
 C            1.82089116        1.97647406       -2.11927612
 C            2.81731424       -1.51035348       -1.78870519
 C            2.20509572       -2.82538285       -1.91088717
 C            2.12757540       -0.38764380       -2.23154057
 C           -0.15605495       -3.38362463       -1.66537183
 C            0.95012620       -2.91656093       -2.48734010
 C           -2.41321554       -2.48929045       -1.36930386
 C           -3.24372067       -1.33241231       -1.66570163
 C           -1.37642062       -2.82958970       -2.22443476
 C           -2.94428708       -0.52580160       -2.75901240
 C           -3.56191846        1.48572588       -1.47823296
 C           -3.00481143        2.74773102       -1.01604552
 C           -2.00607247        3.37915951       -1.75198406
 C           -3.10355587        0.91753071       -2.66157555
 C           -0.07860905        3.00033950       -3.04026411
 C            0.81337296        1.86000540       -3.15768779
 C           -1.50930361        2.76872832       -2.97656472
 C           -2.00218713        1.53585861       -3.38399173
 C            1.01533354       -0.53133920       -3.06817498
 C            0.45195896       -1.79198699       -3.25315075
 C           -0.99190253       -1.92152353       -3.29671495
 C           -1.75008910       -0.78819013       -3.54791573
 C            0.28696918        0.60207930       -3.43921527
 C           -1.06987975        0.48037365       -3.75280672
