   70
C70 / DATE: 7/ 1/2024 / Origin: Program Fullerene / C70 from database
 C            1.13972701        0.15736060        4.87013380
 C            2.44564228        0.02331653        4.26392470
 C            2.55436553       -1.34300984        3.79541959
 C            0.35483667       -1.01539137        4.49631125
 C            1.21008974       -1.89131968        3.73540231
 C           -0.86866645       -0.55239600        3.88593169
 C            0.35390112        1.32637298        4.54785715
 C           -0.97153007        0.85774440        4.19116437
 C            0.79591541        2.21093250        3.47939940
 C            2.80477193        0.88959424        3.15250160
 C            1.96118264        1.93172226        2.76211987
 C            3.33282166       -1.32864807        2.57175249
 C            3.42298975        0.05657916        2.12915320
 C            3.04320126       -2.29493986        1.62804856
 C            0.76964741       -2.40539161        2.51929525
 C            1.74621530       -2.95437232        1.70146834
 C           -1.20231270       -0.97265922        2.59829853
 C           -0.41665648       -1.92465490        1.93251342
 C           -2.09553897       -0.19644225        1.86106042
 C           -1.46474988        1.72690287        3.15160243
 C           -0.39973330        2.63171042        2.76321410
 C           -2.20652329        1.17421678        2.12937892
 C           -0.30904345        2.99172509        1.41652888
 C            2.09265815        2.44201919        1.47519608
 C            0.95228981        3.07498579        0.83045906
 C            3.22330713        0.37562829        0.78260359
 C            2.79418506        1.65920047        0.46772824
 C            3.23961090       -1.96963771        0.23506726
 C            3.11068392       -0.64353316       -0.17162126
 C            1.40050745       -3.36036671        0.36124371
 C            2.52293297       -2.99342283       -0.49019034
 C           -0.72500065       -2.25995862        0.59898269
 C            0.10950060       -3.14143017       -0.10419691
 C           -2.55726285       -0.67070714        0.63211320
 C           -1.78632445       -1.61123837       -0.06123463
 C           -3.46743531        0.12605501       -0.06620034
 C           -2.47777277        2.00582132        1.06460103
 C           -1.42736428        2.80240409        0.59092312
 C           -3.43721175        1.55654388        0.17976898
 C           -1.29047253        2.99611917       -0.78790645
 C            1.09046784        2.86536071       -0.60066452
 C            2.16283425        1.91065697       -0.81355670
 C           -0.04933594        2.75796467       -1.37828445
 C            2.56906497       -0.37431921       -1.43753802
 C            1.96078611        0.85577373       -1.69601605
 C            2.26959842       -2.78404839       -1.82981869
 C            2.38659716       -1.42336522       -2.33640936
 C           -0.11336037       -3.37823772       -1.45539623
 C            1.03075774       -3.32104628       -2.35088835
 C           -2.00989549       -1.82446200       -1.43210751
 C           -1.22129020       -2.73436292       -2.12835300
 C           -3.65015707       -0.06374324       -1.49060105
 C           -2.81162204       -0.94247682       -2.16342110
 C           -3.58243431        2.23944770       -1.08348914
 C           -2.43247167        2.96028649       -1.58545072
 C           -3.94547873        1.24129997       -2.06840208
 C           -2.29995773        2.62768636       -2.99420170
 C           -3.30738908        1.62316783       -3.31054735
 C            0.01720855        2.01167611       -2.55263604
 C            0.93272099        0.95068826       -2.64412172
 C           -1.02194328        2.13058083       -3.46800185
 C            1.42796375       -1.27733848       -3.41724509
 C            0.65975325       -2.50938569       -3.48616987
 C           -0.78392909       -2.40442371       -3.47956696
 C            0.74024561       -0.07888509       -3.57830520
 C           -2.54827817       -0.74245681       -3.52076662
 C           -2.65999786        0.58939798       -4.08702717
 C           -1.30189472        1.03156446       -4.36190082
 C           -1.33014787       -1.28486244       -4.07779835
 C           -0.45579954       -0.13957329       -4.29113159
