   70
C70 / DATE: 7/ 1/2024 / Origin: Program Fullerene / C70 from database
 C            1.20141006       -0.13787194        4.59995498
 C            2.51553549       -0.40051044        4.04808688
 C            2.44823232       -1.66684971        3.33137955
 C            0.37052961       -1.29646450        4.31612877
 C            1.07042571       -2.12114787        3.36014969
 C           -0.94010850       -0.81714478        3.95068342
 C            0.47247713        1.04462885        4.17095969
 C           -0.88376711        0.63316840        3.85904826
 C            1.09383947        1.98697543        3.36460804
 C            3.11618993        0.57530530        3.15695864
 C            2.46339963        1.77995817        2.90792167
 C            3.08889095       -1.47866000        2.04291034
 C            3.70224403       -0.16270076        2.05133311
 C            2.43355274       -1.90969575        0.89207257
 C            0.43981009       -2.42161937        2.15672192
 C            1.21866256       -2.58665302        1.01222300
 C           -1.65408212       -1.48379992        2.96614802
 C           -0.95098965       -2.27014640        2.03355334
 C           -2.81007189       -0.84123606        2.55546177
 C           -1.59178011        1.24876918        2.82420260
 C           -2.74925986        0.60339177        2.39963471
 C            0.34430499        2.58818397        2.27456660
 C           -0.91078177        2.08385443        1.92784118
 C            2.59237306        2.40848590        1.60321090
 C            1.28857724        2.92488107        1.22315963
 C            3.90688864        0.47442835        0.83730474
 C            3.39388890        1.82324303        0.63405651
 C            2.81252076       -1.38184915       -0.34627997
 C            3.64561066       -0.26419672       -0.38485341
 C            2.13841115       -1.77361858       -1.50668189
 C            0.63514527       -3.12655371       -0.12006819
 C            1.13307998       -2.73050192       -1.42392255
 C           -1.58020467       -2.69435240        0.84924844
 C           -0.81165426       -3.20477986       -0.19279756
 C           -3.55790426       -1.38131491        1.44956487
 C           -2.88954493       -2.31248115        0.56998512
 C           -3.31334757        0.91932648        1.10471515
 C           -4.01432745       -0.26007720        0.64733359
 C           -1.34793520        2.21042385        0.59989671
 C           -2.54779921        1.62124354        0.18763149
 C            0.86694724        2.83873845       -0.09701660
 C           -0.49993542        2.79182426       -0.34840676
 C            3.00657336        1.93309020       -0.76300636
 C            3.45349792        0.72293564       -1.42638821
 C            1.76380062        2.46420445       -1.10422334
 C            2.23780714       -0.99840096       -2.66115931
 C            2.80977247        0.33763219       -2.58760886
 C            1.11566080       -0.94247919       -3.58846933
 C            0.00129265       -2.66696417       -2.33563136
 C           -1.20658441       -2.94854008       -1.57219557
 C           -0.02792544       -1.70042205       -3.33537527
 C           -3.25191681       -1.95093301       -0.79186060
 C           -3.87178698       -0.63351831       -0.74177785
 C           -2.37708128       -2.23916935       -1.84070142
 C           -2.82362189        1.48666173       -1.17687057
 C           -3.44398283        0.31862183       -1.65572617
 C           -0.93666817        2.95883443       -1.65562913
 C           -2.19334815        2.35905587       -2.05944964
 C            1.28122958        2.25748467       -2.39911269
 C            1.84389164        1.24514432       -3.18068057
 C            0.99639634        0.43798568       -4.04260239
 C            0.01990996        2.74745516       -2.72641989
 C           -2.08757471        2.02286132       -3.46774893
 C           -0.24072666        0.92985604       -4.42830593
 C           -0.69731946        2.18515604       -3.85919117
 C           -1.26118791       -1.27333286       -3.81630781
 C           -2.44681727       -1.45526506       -2.99367563
 C           -3.11259788       -0.16638630       -2.91428668
 C           -1.37170309        0.02308370       -4.46683942
 C           -2.51844313        0.71274378       -3.89738483
