   70
C70 / DATE: 7/ 1/2024 / Origin: Program Fullerene / C70 from database
 C            1.31027101        0.16893470        4.94666701
 C            0.53084421       -1.03711847        4.75638039
 C            1.44050716       -2.05329298        4.27692943
 C            2.57298559       -0.01181628        4.24386010
 C            2.65209038       -1.38978026        3.81857020
 C            2.65433292        1.01560350        3.23116847
 C            0.59975527        1.25567148        4.29884096
 C            1.53911432        1.92652534        3.43146203
 C           -0.62649173       -0.70803242        3.93436164
 C           -0.59916845        0.72405573        3.68824536
 C           -0.98516038       -1.56492370        2.89201716
 C            0.98703901       -2.88579139        3.19168431
 C           -0.33967206       -2.80515450        2.78693674
 C            2.79616495       -1.67620511        2.39681673
 C            1.99354231       -2.84711613        2.14494370
 C            2.98682674        0.67633139        1.91828024
 C            2.76336058       -0.63494074        1.47491365
 C            2.90884328        1.70714408        0.99657376
 C            1.05162056        2.55961068        2.29893099
 C            1.98330226        2.78387326        1.29991602
 C           -0.93801959        1.19056153        2.42491053
 C           -0.27050174        2.30652993        1.90335597
 C           -1.63477507       -1.02950033        1.76771762
 C           -1.63542727        0.35260881        1.55644726
 C           -2.08561408       -1.88633238        0.76065153
 C           -0.66149033       -3.61479674        1.71312874
 C           -1.76700600       -3.23985688        0.86428480
 C            1.54534275       -3.11121045        0.85951558
 C            0.43000957       -3.93415379        0.80890280
 C            2.22418822       -0.86900823        0.19607470
 C            1.68300041       -2.12166871       -0.13331741
 C            2.73624953        1.39348375       -0.40627074
 C            2.23479767        0.15020415       -0.75950472
 C            1.52254307        3.32453399        0.05112011
 C            2.16688948        2.57768878       -1.01424885
 C           -0.71930504        2.83317327        0.68695146
 C            0.17141143        3.59249024       -0.08673620
 C           -2.08166326        0.87623770        0.34694024
 C           -1.80962771        2.21334658        0.06245037
 C           -2.53608007       -1.35786336       -0.46002093
 C           -2.53259313        0.02393811       -0.66554426
 C           -2.66745470       -2.18336658       -1.57606364
 C           -1.58320770       -4.03015752       -0.33373952
 C           -0.14849173       -4.23717361       -0.46898012
 C           -2.04424472       -3.48921598       -1.58323735
 C            1.03258625       -2.28942367       -1.37212506
 C            0.28248595       -3.45081939       -1.59817591
 C           -0.87922568       -3.37975711       -2.44941020
 C            1.44709280        0.04234409       -1.90839041
 C            0.89881007       -1.20168883       -2.25796902
 C            1.46613708        2.46061717       -2.20312673
 C            1.21925601        1.17674890       -2.70969000
 C           -0.22558723        3.99726696       -1.35150831
 C            0.55200610        3.48244598       -2.46681262
 C           -2.35745684        2.78724472       -1.07727508
 C           -1.61723210        3.85712481       -1.70997343
 C           -2.77268509        0.53247094       -1.95258609
 C           -2.86207972        1.91516633       -2.12468321
 C           -2.35310612       -1.62996839       -2.87152677
 C           -1.05906315       -2.18695044       -3.22679651
 C           -0.00277418       -1.29475830       -3.33608701
 C           -2.50076194       -0.26947043       -3.07010634
 C            0.48006847        1.04138769       -3.88038221
 C           -0.29965062       -0.15638163       -4.07018635
 C           -1.69204335        0.25773868       -4.06936199
 C           -0.32517521        3.38885614       -3.61115802
 C           -1.67633659        3.67345473       -3.14811598
 C           -2.48050211        2.49638474       -3.40531225
 C           -0.35786317        2.14201831       -4.33933316
 C           -1.73593757        1.67387753       -4.33219422
