   70
C70 / DATE: 7/ 1/2024 / Origin: Program Fullerene / C70 from database
 C            1.28535541        0.11207314        4.68517485
 C            2.52839294       -0.01090449        3.95585206
 C            2.51301981       -1.29590996        3.27656613
 C            0.46014407       -1.03987312        4.34940111
 C            1.17008392       -1.82988186        3.36305610
 C           -0.86274711       -0.55648536        4.01685395
 C            0.48618737        1.30377330        4.49181858
 C           -0.87518069        0.88233506        4.21268194
 C            0.86506865        2.25611654        3.46242375
 C            2.88054241        0.99747177        2.96822426
 C            2.05768414        2.10542167        2.74996723
 C            3.08432961       -1.10135235        1.96199590
 C            3.44549996        0.29618236        1.82487936
 C            2.49397173       -1.71762391        0.87346303
 C            0.51456614       -2.18480152        2.18581673
 C            1.25037994       -2.34790561        1.01432642
 C           -1.49694909       -1.05188724        2.88712432
 C           -0.86550564       -2.01699632        2.09319259
 C           -2.45206576       -0.24282568        2.29045431
 C           -1.39632372        1.71566244        3.13617004
 C           -0.34570936        2.63528757        2.74689578
 C           -2.15785062        1.10954023        2.14282424
 C           -0.24196671        3.01846210        1.41662002
 C            2.19619001        2.80200574        1.55400306
 C            1.01459096        3.38723522        0.94280970
 C            3.36335437        0.88104520        0.56263521
 C            2.98833129        2.22111678        0.48199659
 C            2.88355402       -1.28987182       -0.38689856
 C            3.22222450        0.05774971       -0.56268691
 C            2.50435606       -2.07099440       -1.46953526
 C            0.60987313       -2.82880304       -0.12848719
 C            1.37715330       -2.96489963       -1.28413845
 C           -1.53327808       -2.46007096        0.94646677
 C           -0.79326565       -2.77442261       -0.20860684
 C           -3.29532067       -0.83657840        1.37525667
 C           -2.87816949       -2.11373879        0.83417261
 C           -3.74188072       -0.04687510        0.24931161
 C           -2.17883039        1.66513990        0.85884161
 C           -1.23785283        2.64159941        0.50961984
 C           -2.97780547        1.06052582       -0.12403787
 C           -1.12901638        3.04466288       -0.81533493
 C            1.25498691        3.47829072       -0.48684048
 C            2.49140373        2.76458519       -0.77265856
 C            0.17902494        3.37445522       -1.35586808
 C            3.10362352        0.64580082       -1.82145988
 C            2.59883182        2.00217285       -1.92661091
 C            2.39548867       -1.48094238       -2.79185557
 C            2.54595525       -0.11128551       -2.92663978
 C            0.73066484       -3.12205252       -2.56359342
 C            1.28968704       -2.12966506       -3.46998449
 C           -1.44557207       -2.97366534       -1.44483438
 C           -0.70515031       -3.00582487       -2.62332790
 C           -3.56483230       -2.27727145       -0.42423648
 C           -4.19085613       -1.00009578       -0.74519311
 C           -2.80295938       -2.69249809       -1.57517647
 C           -3.93412162       -0.72009092       -2.13640593
 C           -3.23248496       -1.86485453       -2.68952082
 C           -2.79434774        1.36979531       -1.48216393
 C           -1.86035260        2.33142372       -1.84098628
 C           -3.16799595        0.46009204       -2.47212541
 C            0.33261771        2.66685676       -2.61757218
 C            1.51319511        1.99634224       -2.89649779
 C            1.45430322        0.67227721       -3.49023982
 C           -0.93495916        2.03087955       -2.92392591
 C            0.18998709       -1.31334022       -3.95315369
 C           -1.02292581       -2.05510221       -3.67909424
 C           -2.22105282       -1.36779732       -3.60592201
 C           -2.18767829        0.08160763       -3.47866109
 C            0.22174657        0.06397876       -3.73754809
 C           -0.97136268        0.76522351       -3.50907369
