   70
C70 / DATE: 7/ 1/2024 / Origin: Program Fullerene / C70 from database
 C            1.49337130       -0.16403419        5.30383747
 C            0.64948751       -1.34328669        5.33375591
 C            1.20571543       -2.30437745        4.40117865
 C            2.54057202       -0.39045198        4.32104516
 C            2.30995087       -1.67063427        3.69586895
 C            2.58531635        0.76850700        3.46906432
 C            0.68805938        0.94703791        4.82532536
 C            1.44722266        1.61671434        3.79678821
 C           -0.65747790       -0.96732561        4.82487230
 C           -0.61537245        0.44082596        4.46650616
 C            0.10647001       -2.82718413        3.61272760
 C           -1.02308527       -1.92541391        3.79140248
 C            0.39487004       -3.25542593        2.33011056
 C            2.34653510       -1.76644919        2.30322686
 C            1.64341267       -2.81540273        1.72247663
 C            2.88580039        0.60768882        2.12376407
 C            2.68489900       -0.64724777        1.51676672
 C            2.70943195        1.74518596        1.35511626
 C            0.77064620        2.20833768        2.73315091
 C            1.56622266        2.58807551        1.66386126
 C           -1.15416894        0.81034420        3.24002974
 C           -0.55201871        1.82028219        2.46992848
 C           -1.69350667       -1.45045925        2.66319864
 C           -2.00328145       -0.09254096        2.61071174
 C           -0.62531102       -3.12214674        1.30870093
 C           -1.62850274       -2.17475444        1.46594606
 C            1.45015326       -2.83993296        0.29196259
 C            0.06435985       -3.18878964        0.04318247
 C            2.60494589       -0.73069221        0.10874523
 C            2.01993656       -1.85429565       -0.50004791
 C            2.81347380        1.65456844       -0.07656323
 C            2.88917846        0.40369759       -0.66960820
 C            0.95193648        2.96756105        0.41063884
 C            1.89911073        2.63651547       -0.63335405
 C           -1.15788506        2.17324778        1.25143668
 C           -0.39255442        2.69962798        0.19949146
 C           -2.77403105        0.36924978        1.56336459
 C           -2.41289945        1.64300434        0.97362669
 C           -2.25463653       -1.66098562        0.32389299
 C           -3.05453017       -0.53898976        0.47092315
 C           -0.53227099       -2.63511928       -1.07345231
 C           -1.76002566       -1.97602588       -0.95022533
 C            1.56759586       -1.76552783       -1.81786467
 C            0.30193447       -2.28135104       -2.12294763
 C            2.72201649        0.35692519       -2.05170471
 C            2.15368273       -0.82810332       -2.65333297
 C            1.42258631        2.42447584       -1.91419402
 C            2.09702177        1.49795090       -2.70294752
 C           -0.85726947        2.63517651       -1.12462063
 C            0.07709500        2.67602320       -2.17914902
 C           -2.89921658        1.62874346       -0.38741104
 C           -3.34839320        0.27720698       -0.68426018
 C           -2.19850034        2.30454397       -1.37293016
 C           -2.30146540       -1.36235208       -2.09368912
 C           -3.10390554       -0.21493431       -1.95819328
 C           -0.29776459       -2.00897533       -3.34247387
 C           -1.70486878       -1.65760210       -3.32652280
 C            1.48432566       -0.42913615       -3.88222100
 C            1.48084324        1.02947306       -3.93051009
 C            0.36511148       -1.13981541       -4.29509881
 C           -0.35012795        2.59157951       -3.50195909
 C            0.36332569        1.70389609       -4.40928059
 C           -2.61460553        2.06289540       -2.67748608
 C           -3.13136788        0.73630969       -2.97766965
 C           -1.76139761        2.45733128       -3.77080052
 C           -1.95651498       -0.82929405       -4.49148687
 C           -0.66767450       -0.47005257       -5.06770237
 C           -0.62083907        0.97411728       -5.18771647
 C           -2.71805571        0.38299904       -4.31731236
 C           -1.93309162        1.48899103       -4.84188954
