   70
C70 / DATE: 7/ 1/2024 / Origin: Program Fullerene / C70 from database
 C            1.65026188       -0.01704597        4.67579175
 C            0.81975606       -1.18627235        4.45545163
 C            1.35835260       -1.91447528        3.31730245
 C            2.65904565        0.00583750        3.63468460
 C            2.54936026       -1.21906082        2.86439041
 C            2.54162388        1.26152339        2.91941326
 C            0.81230357        1.15514002        4.50030210
 C            1.33241886        1.92171345        3.37774436
 C           -0.56258743       -0.74726574        4.40866898
 C           -0.56739739        0.71034285        4.45452122
 C           -1.43144413       -1.41014309        3.55061739
 C            0.48204171       -2.42349348        2.36443406
 C           -0.89177275       -2.37269041        2.60256566
 C            0.93306275       -2.61504608        1.05795882
 C            2.79321720       -1.14511087        1.49845232
 C            2.13958293       -2.03378733        0.64507807
 C            2.79981986        1.25156083        1.56002439
 C            3.24387265        0.06458203        0.97662455
 C            2.14555647        2.18077338        0.75915055
 C            0.43797019        2.43222863        2.43414864
 C            0.84980565        2.57554226        1.10173277
 C           -1.44908068        1.41568200        3.64821220
 C           -0.91899293        2.41843226        2.73361692
 C           -2.48431189       -0.67156320        2.86993971
 C           -2.51305489        0.71057897        2.95112798
 C           -1.80884317       -2.43375573        1.47853303
 C           -2.72413917       -1.31228589        1.58528169
 C            0.03565225       -3.08358683        0.10240064
 C           -1.31376214       -2.75567661        0.22797473
 C            0.52500692       -3.44172182       -1.14528081
 C            2.49083776       -2.04565422       -0.71096546
 C            1.75069476       -2.81730758       -1.60416817
 C            3.64790361        0.09697831       -0.34964563
 C            3.24728280       -0.99110631       -1.22564929
 C            2.59884737        2.34818302       -0.53896530
 C            3.48947549        1.33909380       -1.08471563
 C            1.65849696        2.71173269       -1.57557760
 C           -0.08454759        2.88402555        0.09308114
 C            0.34356850        3.01525733       -1.24252747
 C           -1.87920963        2.57272828        1.66770898
 C           -2.83142263        1.47739882        1.76361687
 C           -1.45484346        2.94977513        0.40327813
 C           -2.98158176       -0.54021352        0.44919047
 C           -3.21206059        0.83478479        0.58756389
 C           -2.00620754       -2.30298943       -0.88935241
 C           -2.69981089       -1.08546404       -0.81448348
 C           -0.39562539       -3.49344145       -2.27007672
 C           -1.69561301       -2.86941443       -2.11916544
 C            1.48845211       -2.28180842       -2.93016318
 C            0.25929596       -2.87371120       -3.41036703
 C            2.87288226       -0.41616498       -2.51078770
 C            3.03891374        1.01526420       -2.42662426
 C            1.90284503        1.85128648       -2.72573713
 C            1.76845691       -0.93920142       -3.17170259
 C            0.81022545        1.30483892       -3.38863887
 C            0.75408883       -0.07802928       -3.63727988
 C           -0.58450773        2.98192876       -2.28157055
 C           -0.36515768        2.05434135       -3.38163636
 C           -2.39186358        2.78965736       -0.60947366
 C           -3.26535571        1.62738036       -0.55099228
 C           -1.99426646        2.98300252       -1.97985318
 C           -2.96101925       -0.34195076       -1.97488661
 C           -1.63890339        1.43372163       -3.71011791
 C           -3.25983856        1.00873758       -1.85867726
 C           -2.62535724        1.94272371       -2.77428523
 C           -1.95843489       -2.12644196       -3.32940795
 C           -0.70574048       -2.02219986       -4.06500343
 C           -0.40658640       -0.60965443       -4.20556675
 C           -2.50302954       -0.79303423       -3.21157608
 C           -1.66460891        0.08399089       -4.01566304
