   70
C70 / DATE: 7/ 1/2024 / Origin: Program Fullerene / C70 from database
 C            1.60512811        0.07686042        4.72943338
 C            0.79544654       -1.10977585        4.53998457
 C            1.46426371       -1.95955742        3.57239603
 C            2.69979401        0.02148735        3.77459210
 C            2.56691602       -1.19291886        3.00797551
 C            2.71139096        1.26900374        3.05648354
 C            0.78288664        1.22319832        4.38289196
 C            1.55290914        2.03951933        3.48176925
 C           -0.55520229       -0.67876733        4.24639944
 C           -0.49262544        0.73614014        3.91215254
 C           -1.32788420       -1.50249479        3.45188497
 C            0.68653944       -2.72868764        2.71115249
 C           -0.70409738       -2.66016020        2.81994081
 C            1.25350878       -3.11040591        1.49899126
 C            2.70963074       -1.14971104        1.62235821
 C            2.30075284       -2.27832474        0.92438185
 C            3.00564790        1.27009149        1.69563589
 C            2.79815260        0.08976015        0.95595012
 C            2.82107854        2.49387402        1.06437568
 C            0.89385790        2.74893680        2.49166560
 C            1.74052354        3.32864234        1.56273137
 C           -0.95731652        1.17232338        2.66738971
 C           -0.35705709        2.27789653        2.04235886
 C           -2.17257556       -0.89119412        2.44650305
 C           -1.83683325        0.35913858        1.94491400
 C           -1.53935883       -3.00647350        1.68174331
 C           -2.52197634       -1.94192327        1.52210836
 C            0.41376068       -3.58638189        0.41097704
 C           -0.97457409       -3.56730241        0.53831031
 C            2.07491633       -2.20205797       -0.50021808
 C            1.02553407       -3.14562310       -0.83671360
 C            2.50938254        0.16782759       -0.42353070
 C            2.08354150       -0.96911206       -1.12229489
 C            2.78109296        2.56033962       -0.37649108
 C            2.61136037        1.39036133       -1.10249187
 C            1.16621726        4.03329785        0.44848479
 C            1.97269973        3.71956543       -0.71655343
 C           -0.85092112        2.70342537        0.79856431
 C           -0.20297285        3.73403342        0.11219384
 C           -2.12692512        0.65900223        0.61347440
 C           -1.78441359        1.91618194        0.11730939
 C           -2.91803236       -1.61523220        0.23685433
 C           -2.74247758       -0.29847164       -0.21868013
 C           -1.74318797       -3.56040604       -0.62288713
 C           -2.87693263       -2.65408171       -0.67983578
 C            0.20698481       -2.89115284       -1.93126611
 C           -1.07420686       -3.43617312       -1.90380026
 C            1.43807241       -0.84014438       -2.34861909
 C            0.47458814       -1.77743226       -2.74109384
 C            2.14418960        1.49591034       -2.41354629
 C            1.60589325        0.32698730       -3.07942677
 C            1.07222016        3.62475131       -1.84820605
 C           -0.28317367        3.79240773       -1.33599159
 C            1.31737581        2.63725069       -2.79083035
 C           -2.19152087        2.28730110       -1.15922006
 C           -1.33057266        3.13760994       -1.96255464
 C           -3.04451795        0.01844478       -1.55449904
 C           -2.76239906        1.29090987       -2.04174548
 C           -3.14884047       -2.37982555       -2.06971185
 C           -2.07790873       -2.98563597       -2.84845373
 C           -3.25880929       -1.00050793       -2.48440861
 C           -0.35473908       -1.48763643       -3.82743274
 C           -1.69283144       -2.03724765       -3.86897777
 C           -2.60882136       -0.91238111       -3.77887144
 C            0.54788644        0.77271578       -3.96983878
 C            0.21431916        2.13560444       -3.58997831
 C           -1.09008279        2.44329937       -3.21669932
 C           -2.12114463        1.43071498       -3.34515220
 C           -0.46852977       -0.11525835       -4.28760862
 C           -1.85499979        0.28764429       -4.08670266
