   70
C70 / DATE: 7/ 1/2024 / Origin: Program Fullerene / C70 from database
 C            1.08569181       -0.14661379        4.91475187
 C            2.31491021       -0.36821817        4.17521276
 C            2.19945505       -1.65009658        3.50138702
 C            0.22196636       -1.29671812        4.69448587
 C            0.84095172       -2.12393419        3.67716530
 C           -1.11885019       -0.80897949        4.46602268
 C            0.30588356        1.04980901        4.64924381
 C           -1.07733545        0.64483243        4.47636614
 C            0.82001706        2.03826669        3.81868334
 C            2.73453829        0.61236926        3.18944578
 C            2.08847269        1.83662036        3.12281080
 C            2.69368419       -1.48949834        2.14569248
 C            3.03579809       -0.09120234        1.95461314
 C            2.03170762       -2.14101881        1.11326029
 C            0.12746240       -2.48639606        2.53628667
 C            0.85536588       -2.83613960        1.39856100
 C           -1.80584012       -1.21466765        3.25703248
 C           -1.22633928       -2.14004042        2.39260262
 C           -1.81485646        1.11827438        3.31360924
 C           -2.41263184       -0.03549482        2.67477084
 C           -0.07010259        2.71667005        2.89136729
 C           -1.26945465        2.11144664        2.51067182
 C            1.98867137        2.50858659        1.83840253
 C            0.77780298        3.30839719        1.87495969
 C            2.74363404        0.49927869        0.72450127
 C            2.31481731        1.82820217        0.66201353
 C            2.22864622       -1.67542419       -0.18276340
 C            2.54286212       -0.32650745       -0.37895674
 C            1.73897796       -2.43132620       -1.24395797
 C            0.17543635       -3.44252810        0.35194819
 C            0.71575338       -3.34307937       -0.99318599
 C           -1.82095255       -2.29839834        1.13854838
 C           -1.25249701       -3.21668671        0.26160349
 C           -2.59442219       -0.02502586        1.29959563
 C           -2.59429941       -1.24622923        0.63250175
 C           -1.69903943        2.22376911        1.18612372
 C           -2.34699823        1.14404243        0.57140061
 C            0.20497034        3.66842485        0.67185105
 C           -1.15421194        3.23262028        0.40130646
 C            1.85525056        2.34126915       -0.55670318
 C            0.95153669        3.40415989       -0.53889741
 C            2.37632746        0.24698785       -1.63596107
 C            1.98860836        1.58581732       -1.72750981
 C            1.94978556       -1.98363914       -2.54306600
 C            2.29760809       -0.58888020       -2.74702001
 C            1.00950844       -2.36682496       -3.58214360
 C           -0.40558532       -3.44263401       -1.91496559
 C           -1.61754706       -3.20873453       -1.14545991
 C           -0.27912390       -2.90627258       -3.18963718
 C           -3.03597535       -1.26784732       -0.68300378
 C           -2.55373126       -2.29018277       -1.59506399
 C           -2.56290003        1.13713592       -0.81535703
 C           -3.09369739       -0.01087536       -1.40699127
 C           -1.30024992        3.17933591       -1.04097120
 C           -0.00666646        3.53082365       -1.61440292
 C           -2.04359444        2.15700142       -1.62239602
 C            1.43620395        2.07306927       -2.91644730
 C            0.32954577        3.01441635       -2.85161534
 C            1.63775980       -0.13409900       -3.95905941
 C            0.77778384       -1.20986207       -4.42726269
 C            1.17587225        1.17058791       -4.02594749
 C           -1.30946610       -2.01478472       -3.70394955
 C           -2.40104777       -1.68255635       -2.90749235
 C           -2.83254396       -0.29680954       -2.80672879
 C           -0.65766377       -0.98939220       -4.50476079
 C           -1.92176803        1.96478438       -3.00005885
 C           -0.74006525        2.47899214       -3.66969034
 C           -0.18476634        1.41261870       -4.48142865
 C           -2.23074150        0.67411833       -3.59050201
 C           -1.13830259        0.31489028       -4.48544192
