   70
C70 / DATE: 7/ 1/2024 / Origin: Program Fullerene / C70 from database
 C            1.13867019        0.09408158        5.35419789
 C            0.44054170       -1.09633042        4.89955169
 C            1.41764837       -1.96412446        4.29096958
 C            2.46941402        0.07857544        4.76488370
 C            2.63923589       -1.19288614        4.09783400
 C            2.62414754        1.28944367        3.98789121
 C            0.43608304        1.24864436        4.82397399
 C            1.40434098        2.07000084        4.13776463
 C           -0.69367478       -0.67813117        4.09710854
 C           -0.70910133        0.77305965        4.07019077
 C           -1.00132966       -1.35522883        2.91540861
 C            1.09077748       -2.56334229        3.01460620
 C           -0.18004825       -2.39722306        2.45920062
 C            2.94370427       -1.21968373        2.67397985
 C            2.22852608       -2.35683078        2.14362691
 C            2.90595732        1.19629285        2.56096405
 C            2.96540132       -0.04308746        1.92323018
 C            1.05584925        2.56832524        2.82464725
 C            2.15316142        2.25833317        1.93166851
 C           -1.05305711        1.39247641        2.87087089
 C           -0.23503068        2.39356385        2.33189777
 C           -1.82547607       -0.70860371        1.99501250
 C           -1.88381593        0.69119058        1.99911661
 C           -2.25629777       -1.41065254        0.87256581
 C           -0.33768567       -2.83044400        1.13878923
 C           -1.51864113       -2.51992316        0.45822002
 C            1.97514984       -2.40590794        0.78836267
 C            0.82646788       -3.07245225        0.40126568
 C            2.67015686       -0.11343153        0.55470860
 C            2.41177903       -1.36062423       -0.02501825
 C            1.84785195        2.15166321        0.58562919
 C            2.30586558        1.05044712       -0.13346190
 C           -0.43580443        2.72849022        0.99586525
 C            0.67861369        2.75861402        0.15149967
 C           -2.38288342        1.35928538        0.88214123
 C           -1.68389873        2.48013989        0.43189387
 C           -3.13745518       -0.78533623       -0.00550530
 C           -3.21998854        0.66239185        0.01605496
 C           -3.21900172       -1.21556604       -1.39148985
 C           -1.71941233       -3.05515680       -0.81405688
 C           -2.49837598       -2.32119363       -1.79728683
 C            0.73062932       -3.40612635       -0.93603868
 C           -0.58134292       -3.62596483       -1.50327033
 C            2.11491909       -1.43605016       -1.38938147
 C            1.49034087       -2.59454130       -1.86865561
 C            1.95224491        0.96724555       -1.48214815
 C            2.04382016       -0.26268491       -2.14090140
 C            0.47212466        2.85997373       -1.21633544
 C            1.20520687        2.00963486       -2.04980644
 C           -1.92233977        2.99431607       -0.83949165
 C           -0.76390773        3.34054121       -1.63603871
 C           -3.40194364        1.11981417       -1.35022862
 C           -3.22273199       -0.02843016       -2.22632589
 C           -2.87246122        2.34266163       -1.72499133
 C           -2.36249004        0.06546500       -3.32239964
 C           -1.72420477       -2.24965443       -3.02650767
 C           -0.56750315       -3.11362002       -2.86220975
 C            0.75403696       -2.56629886       -3.12180164
 C           -1.55801111       -1.02797960       -3.67937255
 C            1.69977997       -0.35061584       -3.48929282
 C            0.84954991       -1.44331002       -3.92420118
 C           -0.37695482       -0.83140713       -4.40146906
 C            1.00162193        2.04138426       -3.42706987
 C            1.24073031        0.83600765       -4.19030027
 C           -0.00909762        0.49161663       -4.85792033
 C           -1.14135438        3.25068399       -3.03011012
 C           -2.38992222        2.50633118       -3.08760567
 C           -2.14727972        1.32153133       -3.89212514
 C           -0.21520821        2.63244268       -3.95509181
 C           -0.93661667        1.57817476       -4.64768187
