   70
C70 / DATE: 7/ 1/2024 / Origin: Program Fullerene / C70 from database
 C            1.30633808        0.00418111        4.44598909
 C            2.52314181       -0.34303842        3.75161508
 C            2.53273126       -1.78305297        3.55772846
 C            0.49078240       -1.19826961        4.55120767
 C            1.23966497       -2.30103142        3.98086484
 C           -0.81622911       -0.88128591        4.00210001
 C            0.46394507        1.04507511        3.88866569
 C           -0.90156264        0.56439525        3.97152329
 C            0.85748817        1.73541542        2.73924867
 C            2.78463504        0.27546565        2.46875123
 C            1.97028654        1.30566699        2.00502010
 C            2.99784717       -2.04734563        2.20299444
 C            3.16771744       -0.76842084        1.53492500
 C            2.44856464       -3.10635864        1.49773213
 C            0.57716727       -3.20190371        3.15774208
 C            1.31246197       -3.81384911        2.06664831
 C           -1.29702404       -1.61545134        2.91778636
 C           -0.75300339       -2.86839124        2.65704728
 C           -2.07706082       -0.98030466        1.94449298
 C           -1.83838671        1.14956553        3.14362745
 C           -2.54958734        0.30703904        2.19527514
 C           -0.09948530        2.52954128        2.09766083
 C           -1.44773193        2.33583655        2.41052056
 C            0.22316379        3.17119810        0.89698801
 C            2.03106119        1.61727876        0.65365186
 C            1.35241587        2.73670287        0.19187267
 C            2.80195057       -0.62158549        0.19850576
 C            2.46722701        0.64994304       -0.25757407
 C            2.20871331       -2.96083109        0.07135087
 C            2.41849977       -1.73186540       -0.55958599
 C            0.37077550       -4.07720575        0.99646463
 C           -0.88688216       -3.43812867        1.33066517
 C            1.00345553       -3.70229828       -0.25146273
 C           -2.14669923       -1.49803682        0.64283896
 C           -1.52285409       -2.71109013        0.33266148
 C           -2.67229899       -0.71400849       -0.39530107
 C           -2.93595737        1.15734916        1.08045429
 C           -2.44266514        2.49468612        1.37046094
 C           -2.83413498        0.65843644       -0.21279965
 C           -0.79736288        3.85790707        0.23367838
 C           -2.14592289        3.33428990        0.31526489
 C           -0.61445906        4.30234580       -1.13363954
 C            1.58070257        3.13966072       -1.12140058
 C            0.63715056        4.01042230       -1.79078343
 C            2.25660844        0.84381666       -1.61852455
 C            2.02313766        2.13988147       -2.07834678
 C            1.81914665       -1.51997643       -1.80852632
 C            1.91955082       -0.25791850       -2.40753847
 C            0.20321680       -3.19383811       -1.25963245
 C           -1.14553200       -2.95185387       -0.98601037
 C            0.82087356       -2.41119778       -2.22438388
 C           -2.70797834       -1.22477012       -1.69003038
 C           -1.93306819       -2.41476107       -1.99501440
 C           -2.57224334       -0.30460229       -2.80778945
 C           -2.60865297        1.53814808       -1.27893349
 C           -2.48281686        2.90009054       -1.02518456
 C           -1.68519774        3.70569321       -1.92368642
 C           -2.28428176        1.03334487       -2.54203724
 C            0.32787364        3.41278754       -3.07636283
 C            1.29412134        2.35406454       -3.31932981
 C           -1.08368074        3.06540483       -3.07396363
 C           -1.43440036        1.75758980       -3.39886297
 C            1.39099216       -0.05754509       -3.68081457
 C            0.87090160        1.24809451       -4.03751292
 C           -0.55711606        1.07317822       -4.23847761
 C            0.10811424       -2.16817101       -3.38981004
 C           -1.33845892       -2.23049367       -3.30811658
 C           -1.86735554       -1.00114576       -3.86774089
 C            0.45559446       -1.02963809       -4.21073283
 C           -0.77792801       -0.32483110       -4.53411409
