   70
C70 / DATE: 7/ 1/2024 / Origin: Program Fullerene / C70 from database
 C            1.52869174       -0.05262581        4.67477137
 C            0.70784287       -1.22910497        4.48986153
 C            1.31079737       -2.03955426        3.44614922
 C            2.60038543       -0.11178814        3.69669038
 C            2.37506863       -1.25496913        2.84352675
 C            2.66371502        1.17897186        3.06849462
 C            0.70630857        1.10130016        4.34844603
 C            1.46413013        1.91482616        3.43748293
 C           -0.65575219       -0.78032442        4.29118639
 C           -0.57981581        0.61995133        3.90204927
 C           -1.48999772       -1.60983052        3.56807420
 C            0.46263702       -2.74545979        2.60640487
 C           -0.90122105       -2.76298728        2.90586707
 C            0.85328134       -2.94440736        1.28579574
 C            2.37892089       -1.07637547        1.45900631
 C            1.68582599       -1.99707112        0.66934747
 C            3.04000270        1.25803001        1.73758066
 C            2.79246470        0.14902866        0.90115500
 C            2.88879964        2.52235836        1.19505652
 C            0.80239952        2.57417602        2.41003458
 C            1.64621799        3.20883507        1.51210769
 C           -1.05410994        1.01078821        2.64415665
 C           -0.39950556        2.02563110        1.92078253
 C           -2.36796809       -1.00986302        2.58831277
 C           -2.01403306        0.21433368        2.01553357
 C           -1.84731605       -3.18005262        1.88189404
 C           -2.81243447       -2.09690033        1.73438233
 C            0.07217206       -3.78901154        0.50676019
 C           -1.35953390       -3.82293553        0.75125133
 C            0.28122816       -3.82905671       -0.92319049
 C            1.64359509       -1.81442033       -0.71450551
 C            1.08654619       -2.78892568       -1.52724921
 C            2.66714216        0.34258537       -0.48841242
 C            1.92560890       -0.56161952       -1.24948981
 C            3.15466181        2.71001492       -0.20557871
 C            3.04843383        1.55242472       -1.05902759
 C            1.11068260        3.72182587        0.27877571
 C            2.19683784        3.68692047       -0.68185624
 C           -0.80912982        2.31016091        0.60383673
 C           -0.14950033        3.30712666       -0.13242287
 C           -2.41363296        0.49672540        0.71002957
 C           -1.76875906        1.49587458       -0.01929364
 C           -3.30656184       -1.78300391        0.48058295
 C           -3.24889234       -0.39927766        0.04615128
 C           -2.02356807       -3.62874351       -0.52619398
 C           -1.02562880       -3.80788070       -1.56234801
 C           -2.96823411       -2.61871791       -0.66291147
 C            0.41424891       -2.37867926       -2.73957887
 C           -0.95990176       -2.85386407       -2.65191741
 C            1.44741273       -0.20940560       -2.52736803
 C            0.62941697       -1.10189368       -3.24030550
 C            2.40338707        1.99499052       -2.28045036
 C            1.87001789        3.33561884       -2.04150272
 C            1.63908001        1.09343693       -3.01705067
 C           -0.48993272        3.52416074       -1.46692086
 C            0.57866597        3.59984569       -2.46280588
 C           -2.09631672        1.68239637       -1.37028663
 C           -1.58377659        2.77910272       -2.05371038
 C           -3.27353454       -0.40810212       -1.39931186
 C           -2.95104334       -1.76030484       -1.83983797
 C           -1.99578841       -1.94096210       -2.84566127
 C           -2.72583791        0.65784800       -2.09047183
 C           -0.36991353       -0.59368155       -4.06019775
 C           -1.74972285       -0.87685310       -3.70811368
 C           -2.34455614        0.41000632       -3.40351303
 C            0.73503973        1.62444333       -3.93914971
 C            0.11955082        2.90247710       -3.64016937
 C           -1.29905592        2.66043362       -3.47242893
 C           -0.31093603        0.78777552       -4.47863220
 C           -1.58530667        1.40422838       -4.12967344
