   70
C70 / DATE: 7/ 1/2024 / Origin: Program Fullerene / C70 from database
 C            1.04940527       -0.04767171        4.63225172
 C            2.27714101       -0.29018637        3.91290854
 C            2.20697290       -1.64616169        3.39555297
 C            0.22148576       -1.23813315        4.49059504
 C            0.82342550       -2.05070254        3.45201980
 C           -1.14164733       -0.79483243        4.32039167
 C            0.23187133        1.08314586        4.24541897
 C           -1.13780791        0.65721978        4.39921315
 C            0.55504216        1.82908647        3.11259713
 C            2.61021881        0.57140267        2.79541258
 C            1.71726046        1.54763730        2.37593215
 C            2.84084010       -1.63971147        2.10168879
 C            3.22312837       -0.27037494        1.79014215
 C            2.27663507       -2.38248863        1.07709882
 C            0.15080465       -2.26399521        2.24510333
 C            0.89155118       -2.62241004        1.10400827
 C           -1.83660656       -1.14938805        3.10124856
 C           -1.17674422       -1.84145158        2.09135154
 C           -2.09937630        1.14406252        3.43456870
 C           -2.64897585       -0.00757437        2.73327998
 C           -0.43535733        2.62901008        2.53385590
 C           -1.78897446        2.26725264        2.67800632
 C           -0.04464522        3.50946032        1.52538181
 C            1.84151197        2.03451414        1.07593204
 C            1.11289619        3.16113826        0.72082254
 C            3.18378748        0.11552041        0.44927155
 C            2.40519897        1.22331165        0.07965639
 C            2.89380709       -2.22628924       -0.14963999
 C            3.38775209       -0.89846185       -0.47989970
 C            2.27040872       -2.76836502       -1.32938192
 C            0.21043904       -2.89406380       -0.09584283
 C            0.94076158       -3.15781021       -1.26608836
 C           -1.72649764       -1.81624521        0.81871949
 C           -1.15762073       -2.60553964       -0.17040466
 C           -3.02214501        0.15364860        1.39980247
 C           -2.63307633       -0.80828695        0.46063478
 C           -2.68995272        2.56225054        1.66173741
 C           -3.30404422        1.44829205        0.95859476
 C           -1.03513571        4.10227705        0.64768088
 C           -2.38666169        3.59757292        0.69914004
 C            0.76976839        3.36969953       -0.67166767
 C           -0.55871718        3.95997569       -0.71722000
 C            2.03152774        1.40866484       -1.26437604
 C            1.08172849        2.37904887       -1.59332370
 C            3.09956687       -0.66519216       -1.87741719
 C            2.71689936       -1.95147143       -2.44297341
 C            2.40489684        0.47992683       -2.24384339
 C            1.99065183       -1.98504849       -3.62327664
 C            0.28137804       -3.40801106       -2.46742705
 C            0.84115658       -2.87273567       -3.70100616
 C           -1.83398502       -2.70678795       -1.37780036
 C           -1.15167507       -3.23736763       -2.53613305
 C           -2.86788576       -0.55958743       -0.89241435
 C           -2.62193270       -1.56916339       -1.81028112
 C           -3.26062836        1.74789747       -0.46344220
 C           -2.73142260        3.08979335       -0.61915998
 C           -1.58650851        3.27780331       -1.48493550
 C           -2.84319153        0.75556238       -1.33984792
 C            0.15714840        2.10327619       -2.59754805
 C           -1.19427297        2.22808643       -2.30468472
 C           -2.00175573        1.09133995       -2.40581881
 C            1.76373973        0.50599134       -3.48170541
 C            1.62123677       -0.72636406       -4.24427048
 C            0.51715855        1.23408389       -3.60948901
 C           -0.22033724       -2.17416031       -4.40820821
 C           -1.44405718       -2.35783274       -3.65815642
 C           -2.13848570       -1.19613673       -3.12574766
 C           -1.63008789        0.09233927       -3.31138975
 C            0.23345523       -0.82556742       -4.67094465
 C           -0.48244584        0.29527798       -4.08425390
