   70
C70 / DATE: 7/ 1/2024 / Origin: Program Fullerene / C70 from database
 C            1.23819677        0.20516850        4.65680095
 C            2.47920720        0.01027234        3.94074784
 C            2.51327172       -1.37907845        3.52125776
 C            0.42121571       -0.98441701        4.44407913
 C            1.15767108       -1.87576120        3.57233479
 C           -0.89434739       -0.54582657        4.03188279
 C            0.43002869        1.35490859        4.31359784
 C           -0.93947889        0.89191634        4.18904002
 C            0.73931738        2.09626244        3.10097218
 C            2.74431935        0.81527996        2.75758110
 C            1.75693152        1.65633655        2.25514751
 C            3.18925543       -1.41714701        2.24593151
 C            3.45656122       -0.04315554        1.84276623
 C            2.72970455       -2.28905119        1.26585773
 C            0.57301431       -2.30589090        2.38410649
 C            1.39838998       -2.73036768        1.33624901
 C           -1.46689041       -1.08288843        2.88655219
 C           -0.78737070       -2.05938722        2.14422984
 C           -2.49887413       -0.37356442        2.28098418
 C           -1.56029419        1.66394048        3.12979549
 C           -0.52896122        2.48984678        2.52780180
 C           -2.44665350        1.02691629        2.26691209
 C           -0.61202704        2.70861056        1.16389333
 C            1.61297523        1.80164958        0.86887306
 C            0.51180061        2.49835324        0.35924830
 C            3.43256490        0.23268657        0.48322164
 C            2.51144896        1.17536779       -0.00854732
 C            3.33204579       -2.14864445        0.01977090
 C            3.80793609       -0.82366420       -0.33501124
 C            2.72126268       -2.72735729       -1.16207112
 C            0.81356523       -3.34656891        0.23527595
 C            1.44372640       -3.25223525       -1.06994636
 C           -1.40046970       -2.60069912        1.00449962
 C           -0.61856389       -3.22910219        0.03847793
 C           -3.26633334       -1.03670125        1.33693778
 C           -2.66056085       -2.14233575        0.61829349
 C           -4.04426363       -0.26136874        0.38983721
 C           -2.78326165        1.70140344        1.09224974
 C           -1.87005086        2.62919099        0.57959397
 C           -3.75627885        1.15231144        0.26390387
 C           -2.00552859        3.11138086       -0.71354796
 C            0.39827580        2.72644054       -1.01442819
 C           -0.79195050        3.29128154       -1.48965138
 C            2.34654901        1.33326692       -1.39528908
 C            1.30617477        2.12435031       -1.89749792
 C            3.70886101       -0.67895771       -1.76154929
 C            3.05240599       -1.86996090       -2.28507565
 C            2.99794881        0.46605073       -2.27910144
 C            1.99114476       -1.41317827       -3.16361153
 C            2.27924211       -0.01892029       -3.43979585
 C            0.42628877       -2.84276451       -2.02982353
 C           -0.85514545       -2.92396043       -1.36708448
 C            0.67319565       -1.79164675       -2.90395194
 C           -2.92321132       -1.93718455       -0.79870565
 C           -3.87780111       -0.86356790       -0.92345903
 C           -1.86249094       -2.02578129       -1.69324955
 C           -3.74911163        1.46001913       -1.15262156
 C           -3.02072153        2.55262034       -1.59335522
 C           -3.59555207        0.19699463       -1.85974911
 C           -1.16311247        3.16624791       -2.88243410
 C           -2.44900863        2.49297627       -2.92584825
 C            1.00636467        2.02200327       -3.26214983
 C            1.26004463        0.76449189       -3.93015681
 C           -0.27888700        2.45336341       -3.76747624
 C           -0.36806556       -0.93537437       -3.27684726
 C           -1.59236761       -0.96460756       -2.57854221
 C           -2.54641285        0.05846190       -2.76450800
 C           -2.22895612        1.18521669       -3.51757190
 C           -0.04499478        0.15386600       -4.08573602
 C           -0.97290838        1.25166307       -4.22031028
