   70
C70 / DATE: 7/ 1/2024 / Origin: Program Fullerene / C70 from database
 C            1.26124490       -0.03971652        4.46452151
 C            2.60283253       -0.27167161        3.96662349
 C            2.63122958       -1.59490035        3.36723845
 C            0.46450017       -1.21597505        4.15834892
 C            1.27880538       -2.12972707        3.38754948
 C           -0.78054121       -0.76788314        3.58366843
 C            0.53086104        1.12779938        3.99868599
 C           -0.74645747        0.67822151        3.47202269
 C            1.20963896        2.13674942        3.33482913
 C            3.16372937        0.66386050        3.00907141
 C            2.56790819        1.90709151        2.84586169
 C            3.31727611       -1.49486875        2.09178965
 C            3.54618088       -0.08346934        1.82233531
 C            2.89081382       -2.30969664        1.05753966
 C            0.75919997       -2.67860021        2.21581271
 C            1.65228102       -3.05565813        1.22163484
 C           -1.32633596       -1.47063863        2.52669478
 C           -0.58300495       -2.46393978        1.87337057
 C           -2.33312638       -0.84141671        1.82054325
 C           -1.28447635        1.26701550        2.32154016
 C           -2.20296670        0.53026650        1.56604293
 C            0.50702161        2.89496011        2.31636883
 C           -0.65991715        2.38084816        1.74808653
 C            2.66953210        2.56211588        1.55429590
 C            1.52672234        3.45385121        1.45158432
 C            3.25480256        0.44592627        0.56268830
 C            3.05917142        1.82319244        0.43576387
 C            2.88297663       -1.77955064       -0.29164789
 C            2.89499689       -0.40685864       -0.48850629
 C            1.15263906       -3.34618693       -0.10422647
 C            1.95182474       -2.58405597       -1.05321034
 C           -1.09608522       -3.00928237        0.68263210
 C           -0.21681838       -3.43791115       -0.32309406
 C           -3.09694279       -1.63534913        0.98773758
 C           -2.44140653       -2.77500092        0.37493594
 C           -3.94745785       -1.00632091        0.00547543
 C           -2.72173530        1.07837580        0.38946104
 C           -3.68882621        0.37708934       -0.33181506
 C           -1.03819831        2.80993201        0.47202057
 C           -2.09301224        2.18025380       -0.19347657
 C            1.15447146        3.90455378        0.19862913
 C           -0.22051411        3.70484486       -0.22653810
 C            2.82397608        2.36012939       -0.82560128
 C            2.00108580        3.55310286       -0.92674778
 C            2.31335062        0.11292686       -1.64483540
 C            2.44746788        1.46903907       -1.90966587
 C            1.30623526       -2.03557772       -2.15441746
 C            1.38644611       -0.64923062       -2.37094384
 C           -0.62820116       -3.43256300       -1.65514669
 C            0.20628992       -2.74162785       -2.62532276
 C           -2.91226061       -2.86368271       -0.99754856
 C           -3.87360240       -1.79216617       -1.21381955
 C           -2.01406127       -3.18412831       -2.00116903
 C           -3.71556945        0.48037851       -1.77998716
 C           -3.68520508       -0.87030256       -2.32209468
 C           -2.31303618        2.46383510       -1.54237708
 C           -2.97535764        1.48292492       -2.38526754
 C           -0.21415423        3.68685874       -1.67971995
 C            1.15038761        3.41555037       -2.09317266
 C            1.44118368        2.13537799       -2.71478340
 C           -1.23205185        3.01585271       -2.33276308
 C            0.47938136       -0.00301742       -3.23078610
 C           -2.05602851        1.15315939       -3.46756343
 C            0.38373987        1.38868303       -3.21619125
 C           -0.87645661        1.98528450       -3.29354068
 C           -0.65398043       -2.14287669       -3.61575964
 C           -2.03123723       -2.43316181       -3.24811571
 C           -2.78295319       -1.19099249       -3.33034941
 C           -0.54233892       -0.72196669       -3.84671687
 C           -1.88588707       -0.17007882       -3.84848291
