   70
C70 / DATE: 7/ 1/2024 / Origin: Program Fullerene / C70 from database
 C            1.60461135       -0.01053574        4.65716564
 C            0.78362049       -1.20308691        4.72956741
 C            1.40577528       -2.22371347        3.90212557
 C            2.62082306       -0.23784008        3.64442687
 C            2.42622381       -1.56721299        3.10081527
 C            2.58289942        0.88288558        2.72605422
 C            0.76137239        1.07514408        4.18995390
 C            1.44003541        1.70664451        3.07916589
 C           -0.59000344       -0.81960904        4.44609476
 C           -0.56770383        0.54979890        3.95539324
 C           -1.41101786       -1.74488756        3.81946856
 C            0.58642907       -3.16595430        3.29991559
 C           -0.85297376       -3.04235237        3.47308359
 C            0.82274987       -3.52291308        1.91072212
 C            2.41718766       -1.71406946        1.71596176
 C            1.67878130       -2.74751304        1.12713408
 C            2.80523233        0.64744699        1.37284911
 C            2.90434396       -0.67201966        0.92213355
 C            2.39346180        1.62860763        0.47114146
 C            0.67930888        2.20924854        2.03309889
 C            1.33720054        2.46866553        0.84106312
 C           -1.19412224        0.86412226        2.75083920
 C           -0.68172597        1.90460426        1.96407984
 C           -2.23785030       -1.31562656        2.70356593
 C           -2.09346827       -0.03691972        2.17873377
 C           -1.48805532       -3.48837398        2.24687005
 C           -0.44704214       -3.95893886        1.35385525
 C           -2.36756059       -2.42950302        1.78165633
 C           -0.65165034       -3.81386139       -0.00767190
 C            1.58461104       -2.82738357       -0.26590156
 C            0.46766858       -3.42272460       -0.84501329
 C            3.08451421       -0.89978493       -0.43532396
 C            2.39115265       -2.01420337       -1.05365338
 C            2.72743245        1.48994819       -0.87727857
 C            3.04021195        0.22293523       -1.35831118
 C            2.28825365        2.45128304       -1.78235638
 C            0.65049286        3.16964000       -0.13886036
 C            1.32211149        3.42762883       -1.32688111
 C           -1.37934491        2.28810033        0.81440520
 C           -0.74794067        3.13300346       -0.10674829
 C           -2.54195537        0.20409356        0.88704554
 C           -2.44887130        1.49583974        0.39123422
 C           -2.42462707       -2.16320530        0.41599754
 C           -1.79960591       -3.04286068       -0.46236020
 C           -2.67382984       -0.85949329       -0.01282429
 C           -0.09273687       -2.85687884       -2.06109766
 C           -1.50474190       -2.59931440       -1.81175832
 C            1.92083295       -1.58163616       -2.36419000
 C            2.42466828       -0.23576709       -2.59378649
 C            0.64116306       -1.92691674       -2.79328208
 C            1.86181184        2.02591444       -3.10650738
 C            1.68280013        0.66636545       -3.34935699
 C            0.59835782        3.90508537       -2.48688618
 C            0.87876301        2.98697568       -3.58045696
 C           -1.49519105        3.65806817       -1.16054400
 C           -0.83546642        4.06009860       -2.38909479
 C           -3.06419467        1.76438991       -0.82369663
 C           -2.71410337        2.97535785       -1.53861234
 C           -2.74594909       -0.58942445       -1.38353562
 C           -2.05464225       -1.41262761       -2.28011661
 C           -3.15718697        0.68142685       -1.78541064
 C           -0.04963578       -1.06225949       -3.63823464
 C            0.53038975        0.22231947       -3.99750129
 C           -1.47205667       -0.85642376       -3.41453028
 C           -0.38990164        2.50712120       -4.09131114
 C           -1.43753842        3.30617035       -3.47766690
 C           -2.61812477        2.64619182       -2.95168074
 C           -2.73851562        1.20455257       -3.07521600
 C           -0.57209282        1.13950496       -4.26117887
 C           -1.80386486        0.49665213       -3.81678047
