   70
C70 / DATE: 7/ 1/2024 / Origin: Program Fullerene / C70 from database
 C            1.18956816        0.00773191        4.29182880
 C            2.48011244       -0.27292214        3.70807137
 C            2.44509202       -1.63439218        3.19473406
 C            0.35398300       -1.16933871        4.10887246
 C            1.06734843       -2.08276432        3.24779833
 C           -0.95449501       -0.71777925        3.69069206
 C            0.44078384        1.14682818        3.80284334
 C           -0.94828806        0.73681996        3.69993226
 C            0.96914925        1.96545511        2.80828663
 C            2.95425118        0.57524978        2.63335985
 C            2.13231955        1.58386656        2.12133646
 C            3.12184473       -1.63260577        1.90772851
 C            3.65770992       -0.29674634        1.71183151
 C            2.52538093       -2.28202772        0.82848647
 C            0.46934422       -2.50392554        2.06736156
 C            1.28882734       -2.91154928        1.02065677
 C           -1.60331258       -1.36623544        2.64809376
 C           -0.88536437       -2.23948609        1.81667755
 C           -2.74124782       -0.74801319        2.15534910
 C           -1.78927305        1.41657251        2.81920045
 C           -2.82179947        0.70510242        2.20822678
 C            0.10193636        2.87969709        2.22658555
 C           -1.32727828        2.59252002        2.22619559
 C            0.43624737        3.48158448        0.95267519
 C            2.38546280        2.07031214        0.83094352
 C            1.54695545        3.02644918        0.25183324
 C            3.86775121        0.14864143        0.41976579
 C            3.36203681        1.45657637        0.04533806
 C            2.94995463       -1.96261450       -0.46667774
 C            3.59401318       -0.74887473       -0.69197633
 C            2.34475418       -2.58190901       -1.55529216
 C            0.72048630       -3.64251466       -0.00932207
 C            1.34793517       -3.60181776       -1.31225881
 C           -1.46215036       -2.71239568        0.62728692
 C           -0.71701628       -3.55732641       -0.20025619
 C           -3.30871199       -1.18314506        0.89835427
 C           -2.65247245       -2.15224800        0.14806621
 C           -3.36419475        1.15963008        0.93726320
 C           -3.86124722       -0.00906514        0.23729247
 C           -1.86266958        3.01778738        0.94069299
 C           -0.81167807        3.73767322        0.24699735
 C           -2.71030552        2.16801774        0.23534067
 C           -0.81519255        3.76492353       -1.13689450
 C            1.63961014        3.28852304       -1.11562541
 C            0.45379465        3.70969989       -1.83990336
 C            3.21781553        1.45503782       -1.39843175
 C            3.16779537        0.06523038       -1.81931410
 C            2.34711524        2.35852222       -1.97707961
 C            1.87489710       -1.75211987       -2.65712660
 C            2.11380925       -0.38671993       -2.61251405
 C            0.30375859       -3.45024243       -2.30750901
 C           -0.97366074       -3.58059042       -1.63288752
 C            0.56955765       -2.23297778       -3.05740450
 C           -3.00277694       -2.30542011       -1.19210921
 C           -2.03952298       -2.85094198       -2.12666827
 C           -3.93214959        0.01607436       -1.14407115
 C           -3.67099932       -1.21103213       -1.87549177
 C           -2.69860745        2.16087416       -1.16717067
 C           -1.75785561        2.92755744       -1.85801728
 C           -3.29357523        1.10588311       -1.86251013
 C            0.30056120        2.82037818       -2.98184986
 C            1.38739340        1.86991969       -2.95066616
 C            1.10957393        0.50495861       -2.99940259
 C           -1.04826802        2.31395952       -2.97028846
 C           -0.46999111       -1.32846819       -3.24934207
 C           -1.77185955       -1.80792383       -3.10577130
 C           -2.87388743       -0.87699109       -3.04569894
 C           -2.57504826        0.53185758       -2.98929963
 C           -0.21325956        0.05208044       -3.17494991
 C           -1.28077133        0.97112916       -3.23221798
