   70
C70 / DATE: 7/ 1/2024 / Origin: Program Fullerene / C70 from database
 C            1.57301689       -0.25834583        4.96056964
 C            0.72702680       -1.43983577        4.96338299
 C            1.24341165       -2.36189738        3.96886957
 C            2.62398111       -0.46762415        3.98277988
 C            2.45508621       -1.79019727        3.41022449
 C            2.62719225        0.66728211        3.07507943
 C            0.77361953        0.86353067        4.50102813
 C            1.45895006        1.47667658        3.37931547
 C           -0.59569736       -1.03755031        4.52784742
 C           -0.58066963        0.39627591        4.29165023
 C            0.16267360       -2.69702946        3.05317319
 C           -0.99281964       -1.90145547        3.42474932
 C            0.47115462       -2.83478273        1.70388920
 C            2.66019114       -1.92766775        2.04533671
 C            1.81333560       -2.77706377        1.33484431
 C            2.93364328        0.43195091        1.73876738
 C            3.25452255       -0.87006474        1.35774059
 C            2.42897899        1.30269105        0.77198404
 C            0.69666349        1.95299989        2.31858103
 C            1.29846222        2.07587658        1.07182049
 C           -1.26825635        0.85847425        3.17887081
 C           -0.69464652        1.85180435        2.37817641
 C           -1.76124294       -1.33879524        2.41336999
 C           -2.16180515       -0.01650224        2.57699849
 C           -0.50600706       -2.54936424        0.74293031
 C           -1.65497859       -1.84211884        1.11293368
 C           -0.19341622       -2.71059118       -0.60963821
 C            2.15069857       -3.07807987        0.02531440
 C            1.09032587       -3.13370150       -0.96412794
 C            3.65191542       -1.09686533        0.04741867
 C            3.25921081       -2.35163764       -0.56703719
 C            2.83525666        1.14195450       -0.55636136
 C            3.45506282       -0.04521132       -0.93709904
 C            2.26876416        1.93553434       -1.54680146
 C            0.58558213        2.69276435        0.04920842
 C            1.18840866        2.83278637       -1.19427238
 C           -1.44944682        2.33236841        1.30337655
 C           -0.79556412        2.86462608        0.18538738
 C           -3.03743751        0.51531282        1.65356232
 C           -2.74883291        1.84545001        1.15939514
 C           -2.49335198       -1.31039076        0.12837586
 C           -3.36362147       -0.28349493        0.49285789
 C           -1.04482369       -2.19872288       -1.59235925
 C           -2.21228324       -1.52574267       -1.22400604
 C           -0.58996295       -2.11267810       -2.90818072
 C            1.66195987       -2.72174579       -2.23706642
 C            2.93671946       -2.09510337       -1.95721502
 C            3.07361327       -0.67038581       -2.19608579
 C            0.83367394       -2.12032391       -3.16492666
 C            1.93893340        1.33369287       -2.83152643
 C            2.14420555       -0.03040159       -3.01216579
 C            1.17198056       -0.79171320       -3.66376811
 C            0.37261338        3.02034300       -2.37826287
 C            0.72205890        1.96473620       -3.31981039
 C           -1.55192056        3.31559463       -0.90064234
 C           -0.95482674        3.38020831       -2.22570419
 C           -3.43627163        1.97862815       -0.11111481
 C           -3.85903958        0.63804843       -0.51165429
 C           -2.92218695        2.85494077       -1.05474820
 C           -2.98232360       -0.88589402       -2.20377025
 C           -3.79931516        0.26094277       -1.84310380
 C           -1.14866817       -1.11192324       -3.79176136
 C           -0.07455724       -0.17273983       -4.09406268
 C           -0.28124410        1.19311236       -3.90534670
 C           -2.41016037       -0.62036188       -3.51460162
 C           -1.92247574        2.87020636       -3.17865989
 C           -3.15698274        2.59585737       -2.46341537
 C           -3.62182685        1.28047655       -2.86251167
 C           -1.58227617        1.69123697       -3.95698747
 C           -2.69395369        0.76162012       -3.85101413
