   70
C70 / DATE: 7/ 1/2024 / Origin: Program Fullerene / C70 from database
 C            1.21981308        0.01768237        4.72008426
 C            2.42171902       -0.05339396        3.91372795
 C            2.49584766       -1.40093733        3.39246678
 C            0.39375002       -1.13277967        4.37658654
 C            1.17912882       -1.99040459        3.51884978
 C           -0.86838263       -0.63357292        3.87385000
 C            0.38835072        1.19251376        4.59634258
 C           -0.96400456        0.74092628        4.30909843
 C            0.71286672        2.17037088        3.57514778
 C            2.57191811        0.85362015        2.78426068
 C            1.62285429        1.84305284        2.56487455
 C            3.05701175       -1.32100386        2.05824277
 C            3.04636651        0.07551152        1.65458650
 C            2.62839056       -2.24346412        1.11949453
 C            0.61118265       -2.50208173        2.36124580
 C            1.48783576       -3.00058328        1.40929745
 C           -1.24767385       -0.95379223        2.57206960
 C           -0.62967172       -2.02349018        1.91506714
 C           -2.05544370       -0.07111400        1.84509373
 C           -1.54031092        1.70450859        3.39744652
 C           -0.55721388        2.75519260        3.20318192
 C           -2.22963394        1.25376857        2.27840608
 C           -0.61991784        3.46870844        2.02153082
 C            1.37964282        2.27857393        1.26073127
 C            0.47838844        3.32068757        1.07879258
 C            2.60781889        0.38684183        0.36431753
 C            1.75133052        1.47682861        0.16843302
 C            2.87323783       -1.93670491       -0.20948208
 C            2.68480707       -0.60631775       -0.61610826
 C            2.72292836       -2.97237569       -1.11823941
 C            0.93648380       -3.76490686        0.39359292
 C            1.72817380       -3.97610914       -0.80226373
 C           -1.06084479       -2.37812396        0.63064755
 C           -0.41330127       -3.42399581       -0.02512992
 C           -2.48118444       -0.43634902        0.56443569
 C           -1.83008727       -1.47344542       -0.10651417
 C           -3.31082185        0.42534633       -0.14575862
 C           -2.61444380        2.21565068        1.34969036
 C           -1.83412306        3.36809938        1.23454702
 C           -3.38751641        1.81460876        0.26969984
 C           -0.05531774        3.58260731       -0.24058363
 C           -1.47903324        3.85615481       -0.08180599
 C            1.20381362        1.71052113       -1.10551278
 C            0.37370887        2.82093067       -1.32029474
 C            2.26463511       -0.31883416       -1.91792198
 C            1.46975367        0.81562201       -2.15922962
 C            2.61072835       -2.66939004       -2.52429017
 C            2.41809215       -1.28831847       -2.91240876
 C            0.81355558       -4.04760390       -1.92143035
 C           -0.45720879       -3.49438811       -1.47445486
 C            1.48788414       -3.43849982       -3.04887079
 C           -1.80385950       -1.49507023       -1.51150750
 C           -1.04716201       -2.45413765       -2.18747945
 C           -3.29254278        0.39115055       -1.59726701
 C           -2.38544743       -0.45008777       -2.24005876
 C           -3.41327932        2.64120646       -0.92470496
 C           -2.33533606        3.59374016       -1.13825851
 C           -3.46826299        1.75521940       -2.07255529
 C           -0.35319057        2.91465666       -2.49868396
 C           -1.75216531        3.31366378       -2.43482452
 C           -2.54080608        2.26312972       -3.05733093
 C            0.74809298        0.91225772       -3.36407413
 C           -1.79147403       -0.03361976       -3.44082005
 C           -0.26798421        1.84870099       -3.46322852
 C           -1.61205701        1.32885268       -3.64621801
 C            1.48228244       -1.31664044       -4.00938736
 C            0.72479326       -2.55160029       -3.89468345
 C           -0.61594237       -2.17368838       -3.48206076
 C            0.52281653       -0.24853270       -4.08953349
 C           -0.80435851       -0.83554900       -3.99286341
