   70
C70 / DATE: 7/ 1/2024 / Origin: Program Fullerene / C70 from database
 C            1.58976951       -0.01571609        4.51797572
 C            0.79390358       -1.21640037        4.35743765
 C            1.35314925       -1.99255576        3.26185118
 C            2.66737080       -0.07534012        3.55191332
 C            2.53837573       -1.30323355        2.78902894
 C            2.65961084        1.17013760        2.81322027
 C            0.74924969        1.11627870        4.16326021
 C            1.38187551        1.81361771        3.06323077
 C           -0.59240134       -0.80667830        4.26411390
 C           -0.59573763        0.62111488        3.97784637
 C           -1.45243012       -1.61708655        3.53858026
 C            0.48139983       -2.55146617        2.33506070
 C           -0.87655784       -2.61971398        2.65517752
 C            0.88084521       -2.67253913        1.00182044
 C            2.78559419       -1.23173085        1.42333925
 C            2.00339990       -1.97668410        0.53410837
 C            3.09983366        1.13875898        1.50219575
 C            3.43594304       -0.09680209        0.94661254
 C            2.62157640        2.12064869        0.64696667
 C            0.61403253        2.20212030        1.96462035
 C            1.27693883        2.49896167        0.76831006
 C           -1.34346520        1.07742830        2.89837609
 C           -0.75815907        1.92027834        1.93674030
 C           -2.54003946       -0.99451649        2.80539004
 C           -2.50523865        0.37818156        2.57560156
 C           -1.85352381       -2.89363728        1.61446082
 C           -2.89134282       -1.87933019        1.70443231
 C            0.01705819       -3.27373956        0.09275001
 C           -1.40931953       -3.29559884        0.36972971
 C            0.18548932       -3.02677159       -1.32445633
 C            2.22985089       -1.84513872       -0.84508634
 C            1.27238714       -2.28736468       -1.76509539
 C            3.90448103       -0.11650874       -0.35871422
 C            3.29119472       -1.05090677       -1.28640413
 C            3.29367042        2.28544787       -0.55549510
 C            4.05818514        1.15438354       -1.04785844
 C            2.60251123        2.87734581       -1.67762124
 C            0.52716006        2.82367280       -0.36942155
 C            1.17038715        3.06136511       -1.58287929
 C           -1.50480106        2.29007222        0.81745202
 C           -0.84624954        2.57353779       -0.38375512
 C           -3.34290925        0.89453742        1.60014044
 C           -2.86826574        2.01380177        0.81388172
 C           -3.42941033       -1.31427598        0.54926516
 C           -3.96435845       -0.03120273        0.67024082
 C           -2.09805644       -2.81603446       -0.81302248
 C           -1.12975696       -2.76808982       -1.89742183
 C           -3.05684738       -1.81151365       -0.71156731
 C           -1.26733787       -1.81218834       -2.90476343
 C            1.18627709       -1.69281208       -3.01994115
 C           -0.12212737       -1.34202853       -3.54753527
 C            3.21566750       -0.40137989       -2.58613198
 C            3.71712041        0.95439273       -2.44314221
 C            2.87572947        2.06281986       -2.85268954
 C            2.11054707       -0.63742549       -3.39063529
 C            0.58001976        2.53227802       -2.79886056
 C           -0.06383270        0.05458688       -3.94586844
 C            1.60718102        1.77713701       -3.49515220
 C            1.32290303        0.48017883       -3.90113784
 C           -1.48030549        2.35270400       -1.61459110
 C           -0.70988169        2.02422182       -2.72793076
 C           -1.06283569        0.91069550       -3.50066508
 C           -3.59264972        1.98885959       -0.44133859
 C           -4.32412610        0.73051846       -0.50556624
 C           -2.84748155        2.12469161       -1.67161797
 C           -3.40134770       -1.12890498       -1.87679081
 C           -2.43018997       -1.03979229       -2.95734887
 C           -2.33011922        0.36278921       -3.34007702
 C           -4.08893680        0.14524235       -1.80391533
 C           -3.32064667        1.10230124       -2.58063279
