   70
C70 / DATE: 7/ 1/2024 / Origin: Program Fullerene / C70 from database
 C            1.33102534       -0.00491989        4.92801620
 C            0.56153377       -1.20820378        4.67367532
 C            1.41413870       -2.14006047        3.97360175
 C            2.58011360       -0.11961338        4.19322674
 C            2.65830911       -1.45455471        3.65197079
 C            2.64737317        0.99118082        3.27107437
 C            0.59017219        1.11898387        4.37524016
 C            1.45612181        1.80750735        3.45458167
 C           -0.67685556       -0.81115838        4.03865587
 C           -0.66730909        0.62904288        3.86614036
 C           -1.19238832       -1.56619889        2.99531995
 C            0.91650700       -2.73726314        2.74879255
 C           -0.39608275       -2.52279549        2.34449448
 C            2.88705807       -1.60957476        2.22662044
 C            1.95542088       -2.61518588        1.75115322
 C            3.10974795        0.79888346        1.96932533
 C            3.13123643       -0.49486999        1.41643590
 C            2.95591611        1.88517063        1.11837682
 C            0.90664928        2.39829087        2.32335444
 C            1.81552176        2.75778448        1.34151648
 C           -1.15704865        1.13785571        2.66321425
 C           -0.41032962        2.08271100        1.93789958
 C           -2.21621304       -0.98521257        2.26341684
 C           -2.12571242        0.38838063        1.99435021
 C           -2.87833492       -1.81102464        1.37264623
 C           -0.73197792       -2.87834597        1.03489651
 C           -2.06983230       -2.78469463        0.66891784
 C            1.58699944       -2.56711528        0.41603478
 C            0.26013179       -2.82079822        0.04545710
 C            2.99519064       -0.66155198        0.02925291
 C            2.38773645       -1.83332179       -0.44510177
 C            3.10038532        1.70964953       -0.30973222
 C            3.18681245        0.43031817       -0.82799949
 C            1.33364988        3.19824902        0.05816535
 C            2.22815072        2.67409642       -0.96115764
 C           -0.87781649        2.48933365        0.67525562
 C           -0.02612127        3.19617335       -0.19148624
 C           -2.71189729        0.91683201        0.84478943
 C           -2.11115530        2.00481713        0.20998455
 C           -3.80677865       -1.22634634        0.43497851
 C           -3.70498343        0.19266793        0.18449869
 C           -2.42940921       -2.71941638       -0.73285917
 C           -3.63339607       -1.90968740       -0.83404539
 C           -0.09138229       -2.71933215       -1.31077872
 C           -1.43031623       -2.56506187       -1.68459805
 C            2.21259503       -2.03420921       -1.80317051
 C            0.91620943       -2.50646360       -2.25615949
 C            2.99717682        0.28244851       -2.19733277
 C            2.67340585       -1.02347075       -2.72578393
 C            1.71104602        2.38547710       -2.22382135
 C            2.19145766        1.26779741       -2.90862401
 C           -0.40188654        3.41432560       -1.50899680
 C            0.46406662        2.91231630       -2.56655271
 C           -2.62398656        2.44431939       -1.01070368
 C           -1.77190512        3.19397699       -1.90349957
 C           -3.90720228        0.38355600       -1.24024123
 C           -3.71964317       -0.91057932       -1.88383724
 C           -3.39354094        1.52625652       -1.83203338
 C           -1.75165808       -1.96019844       -2.90090816
 C           -2.85918553       -1.01777914       -2.96820415
 C            0.60944456       -1.82539677       -3.50432998
 C            1.66057038       -0.85908585       -3.75315843
 C            1.31366287        0.54879887       -3.82096920
 C           -0.69927896       -1.45677101       -3.76155454
 C           -0.37890623        2.20636861       -3.51752692
 C           -1.76072283        2.51106093       -3.18834869
 C           -2.72556741        1.43202805       -3.12180927
 C           -2.37615294        0.18596131       -3.62621670
 C           -0.02380614        0.92084688       -3.91269608
 C           -1.00675357       -0.06320534       -4.06109373
