   70
C70 / DATE: 7/ 1/2024 / Origin: Program Fullerene / C70 from database
 C            1.09331678       -0.09071911        4.65878421
 C            2.35853798       -0.41443208        4.04211387
 C            2.24153302       -1.74686911        3.46483627
 C            0.23587788       -1.25877486        4.53593662
 C            0.84861028       -2.13764826        3.55963083
 C           -1.10823009       -0.78491862        4.29124463
 C            0.34618591        1.04173926        4.15217994
 C           -1.05220530        0.66480832        4.18168543
 C            0.81039676        1.74648413        3.04393615
 C            2.86715862        0.45371111        2.99908154
 C            2.09504099        1.51578994        2.52481531
 C            2.86354227       -1.70423769        2.15151858
 C            3.51758978       -0.41264221        2.03876734
 C            2.16541344       -2.20189863        1.05219742
 C            0.16787918       -2.44973801        2.38489617
 C            0.91032637       -2.78146302        1.24977921
 C           -1.81432938       -1.27319853        3.12419410
 C           -1.20364978       -2.17811193        2.25882133
 C           -1.89285658        1.05288892        3.06173727
 C           -2.51521766       -0.14836237        2.54116393
 C           -0.11089046        2.46840474        2.28829927
 C           -1.41695205        1.98370089        2.14974149
 C            0.37394677        3.38363922        1.36689318
 C            2.46197214        2.11128122        1.31105428
 C            1.68217805        3.14153398        0.79076211
 C            3.76793756        0.08623260        0.77374163
 C            3.33126067        1.43666820        0.45157501
 C            2.54261831       -1.79296423       -0.23130972
 C            3.44812337       -0.74202905       -0.37388671
 C            1.82262237       -2.23454638       -1.34496783
 C            0.25376992       -3.35166362        0.17074252
 C            0.76353668       -3.11666929       -1.16763106
 C           -1.82053628       -2.39950189        1.02583662
 C           -1.18917499       -3.24238418        0.11723211
 C           -2.80918103       -0.21360952        1.18549886
 C           -2.74818931       -1.45716946        0.56451378
 C           -2.04821662        2.06257554        0.90910057
 C           -2.70004159        0.93701939        0.39685762
 C           -0.50251057        3.84469774        0.30697128
 C           -1.73067157        3.11333660        0.06438565
 C            1.55354714        3.27044639       -0.65400118
 C            0.26133393        3.85246501       -0.92943828
 C            3.09161751        1.48340256       -0.98480878
 C            3.32960594        0.14940573       -1.51067682
 C            2.03273400        2.24954153       -1.46818520
 C            1.94783108       -1.56626662       -2.56182320
 C            2.61277165       -0.27431707       -2.61241177
 C            0.81220287       -1.50461757       -3.46982398
 C           -0.37315397       -3.07107989       -2.07636942
 C           -1.58281435       -3.22744317       -1.27917633
 C           -0.36117907       -2.19189919       -3.15957271
 C           -3.28298731       -1.56945688       -0.71231859
 C           -2.72782740       -2.53878865       -1.64235567
 C           -3.01037612        0.85453038       -0.96832559
 C           -3.54104985       -0.34588636       -1.45111666
 C           -1.84861339        2.92797895       -1.36575507
 C           -0.55707324        3.24966888       -1.95414151
 C           -2.53295720        1.82616513       -1.86386126
 C            1.26808239        1.78311033       -2.55159931
 C            1.69968125        0.65418731       -3.24969200
 C            0.74493817       -0.14506817       -3.99248564
 C            0.00820429        2.33731478       -2.83867057
 C           -2.24602486        1.47294589       -3.18135086
 C           -0.48607858        0.40342083       -4.30112225
 C           -0.88342470        1.64316311       -3.65651909
 C           -1.56869977       -1.77462584       -3.71813353
 C           -2.80018360       -1.96532353       -2.97229507
 C           -3.45381539       -0.67132181       -2.86186438
 C           -1.64809815       -0.46689149       -4.34415454
 C           -2.76471510        0.24427967       -3.74068156
