   70
C70 / DATE: 7/ 1/2024 / Origin: Program Fullerene / C70 from database
 C            1.47421913        0.12597098        5.13683234
 C            0.69554015       -1.06221141        4.83475660
 C            1.59607638       -2.00197493        4.21739483
 C            2.66868897        0.07992050        4.30929805
 C            2.81587207       -1.28097967        3.86140510
 C            2.55057384        1.12669415        3.31206069
 C            0.70088463        1.27264638        4.70709179
 C            1.52562440        2.03809020        3.79300830
 C           -0.48278031       -0.64839083        4.09469056
 C           -0.57988878        0.79494407        4.21612038
 C           -0.78307423       -1.23981763        2.86357533
 C            1.16125869       -2.68579121        3.01788157
 C           -0.05538550       -2.35157993        2.41290526
 C            3.04168586       -1.52665577        2.45154502
 C            2.33756428       -2.75883300        2.17867485
 C            2.59401196        0.80964606        1.94819556
 C            2.92902202       -0.48615050        1.52284908
 C            2.07883243        1.72954706        1.03040066
 C            0.86710441        2.82203667        2.86396485
 C            1.34316809        2.81935755        1.49533454
 C           -1.17107926        1.49691909        3.17651536
 C           -0.57599339        2.69150333        2.76876173
 C           -1.60479069       -0.54183819        1.97129799
 C           -1.93325741        0.79075329        2.24902969
 C           -1.91467777       -1.10277172        0.72481800
 C           -0.26780606       -2.81916537        1.11451666
 C           -1.33020579       -2.31772914        0.35943477
 C            2.14559194       -3.10233726        0.86017198
 C            0.79856814       -3.43257881        0.45277320
 C            2.76520708       -0.83452787        0.17661873
 C            2.62125443       -2.18195378       -0.15422330
 C            2.00046633        1.40174147       -0.32217235
 C            2.37184761        0.12734874       -0.75314677
 C            1.26445154        2.22814450       -1.17501615
 C            0.25229672        3.32999567        0.68004007
 C           -0.95542694        3.26272396        1.48929015
 C            0.19514896        2.95125924       -0.65618200
 C           -2.65138134        1.52548899        1.31737560
 C           -2.11851069        2.81153631        0.89279716
 C           -2.75193981       -0.41923719       -0.17146788
 C           -3.18031725        0.86644945        0.14149668
 C           -2.90771136       -0.87170098       -1.48655020
 C           -1.52085058       -2.81460030       -0.92876001
 C           -2.35282208       -2.08596701       -1.86852735
 C            0.82903656       -3.42771583       -0.99327964
 C            1.92068110       -2.54256102       -1.37590744
 C           -0.37090998       -3.31443368       -1.66590896
 C            2.09974293       -0.25623011       -2.07018909
 C            1.68044058       -1.56421333       -2.33190703
 C            1.30655728        1.99844476       -2.54090194
 C            1.84940043        0.73819443       -3.00875389
 C            0.11394118        2.27433440       -3.32003385
 C           -1.04123963        2.90563149       -1.31094274
 C           -2.20963937        2.84414852       -0.55204947
 C           -3.21850113        1.86982813       -0.90665904
 C           -1.08949596        2.49497910       -2.64659560
 C           -3.33376229        0.01855064       -2.47441786
 C           -3.26895319        1.44425578       -2.21814356
 C           -2.28948975        1.97672152       -3.14835031
 C           -2.89625831       -0.17228660       -3.84888625
 C           -2.29136310        1.07701038       -4.29021207
 C           -1.73653879       -2.21629646       -3.18360964
 C           -0.37361884       -2.65060943       -2.95322609
 C            0.67742886       -1.79511479       -3.27840345
 C           -1.97173633       -1.24839202       -4.14996270
 C            1.16290405        0.39329119       -4.24047208
 C            0.16509036        1.42007235       -4.49498955
 C           -1.04239487        0.76326067       -4.95004278
 C            0.50505089       -0.89426089       -4.32290729
 C           -0.83343351       -0.67253435       -4.85012478
