   70
C70 / DATE: 7/ 1/2024 / Origin: Program Fullerene / C70 from database
 C            1.18026429        0.18804249        4.77366170
 C            2.45608205       -0.02509590        4.12646074
 C            2.52939266       -1.43298041        3.78978953
 C            0.36396576       -0.99891152        4.53998090
 C            1.17452548       -1.95632159        3.82649694
 C           -0.87728253       -0.56785639        3.94143798
 C            0.39747213        1.33695540        4.37605907
 C           -0.95172019        0.86404662        4.13001053
 C            0.79810234        2.09658623        3.20125761
 C            2.76866655        0.72043065        2.91824014
 C            1.86539930        1.66386923        2.41595309
 C            3.26822708       -1.54965032        2.54532683
 C            3.40232305       -0.20766808        1.99590668
 C            2.91592916       -2.57847559        1.68798782
 C            0.68009224       -2.56482943        2.67652924
 C            1.61925115       -3.20930663        1.87905110
 C           -1.26365349       -1.08586229        2.70775062
 C           -0.52359292       -2.11015665        2.09846337
 C           -2.18257615       -0.36494298        1.94486701
 C           -1.48486829        1.65280145        3.04357442
 C           -0.42691540        2.51135616        2.54807002
 C           -2.26944493        1.02677939        2.09078012
 C           -0.41498605        2.77188899        1.18330261
 C            1.85304307        1.92716448        1.04199674
 C            0.77658387        2.62125669        0.46756519
 C            3.22428792        0.00271561        0.63355823
 C            2.75309547        1.24440193        0.22194158
 C            3.06675166       -2.37711768        0.26103056
 C            3.11992684       -1.08274663       -0.24343830
 C            1.21595920       -3.76140008        0.61049643
 C            2.18993619       -3.32972735       -0.38283737
 C           -0.92639144       -2.57991397        0.83412200
 C           -0.09522467       -3.43085316        0.10542851
 C           -2.71006004       -0.94666936        0.79528222
 C           -1.97161528       -1.94459944        0.15034163
 C           -3.64674122       -0.20831073        0.07470157
 C           -2.58954822        1.77626672        0.96780468
 C           -1.62428379        2.67278322        0.49477200
 C           -3.52791671        1.23588173        0.10104330
 C           -1.66422547        3.11860531       -0.81926282
 C            0.78113815        2.89354959       -0.90631776
 C           -0.41215874        3.24643090       -1.54208245
 C            2.81271372        1.54726293       -1.12838557
 C            1.87526255        2.50659249       -1.67462815
 C            2.71984415       -0.84608483       -1.56167617
 C            2.90161813        0.43990817       -2.06179162
 C            1.45406654       -2.90222406       -1.55511836
 C            0.05573639       -3.20251012       -1.31772251
 C            1.76765950       -1.68850122       -2.15940394
 C           -2.04097847       -2.07991309       -1.24501731
 C           -0.89076536       -2.41820700       -1.94980773
 C           -3.97900972       -0.59954871       -1.27830429
 C           -3.10177668       -1.52766585       -1.95255064
 C           -3.62785362        1.72093980       -1.26177658
 C           -2.66839528        2.60548132       -1.73554627
 C           -4.06103432        0.60799301       -2.08725084
 C           -0.65321975        2.84921821       -2.92396364
 C           -2.02624118        2.38038112       -3.02471737
 C            1.68691851        2.16924085       -3.07541655
 C            2.22535926        0.83388422       -3.28093929
 C            0.34739818        2.19651862       -3.63132312
 C            0.83617442       -1.15652659       -3.05588441
 C           -0.48781348       -1.60540250       -3.00832621
 C            1.14932408       -0.00105952       -3.76515322
 C            0.08310263        0.88311278       -4.20241870
 C           -2.84268849       -0.99998488       -3.28229514
 C           -3.38134849        0.34978526       -3.34172546
 C           -2.30802970        1.23363934       -3.76224420
 C           -1.46720175       -0.95117381       -3.75137970
 C           -1.21603185        0.39642747       -4.23233708
