   70
C70 / DATE: 7/ 1/2024 / Origin: Program Fullerene / C70 from database
 C            1.32642483        0.03587598        4.41484890
 C            2.53437455       -0.32465755        3.71362602
 C            2.48242457       -1.75496643        3.45844810
 C            0.50664713       -1.16242228        4.53560213
 C            1.12276710       -2.19229098        3.71874909
 C           -0.86802731       -0.77922281        4.27079618
 C            0.48432620        1.07117402        3.85574936
 C           -0.88348504        0.66622783        4.11368250
 C            0.79383793        1.65215444        2.62157491
 C            2.82434666        0.32446964        2.45179086
 C            1.92690360        1.24539130        1.90452496
 C            3.04573963       -1.98367838        2.14273122
 C            3.39739925       -0.68709740        1.58394238
 C            2.43715748       -2.91419221        1.31622498
 C            0.39104618       -2.79096796        2.69194619
 C            1.06188935       -3.31360867        1.58645102
 C           -1.63239238       -1.56490318        3.41786083
 C           -0.98859657       -2.59860386        2.61761072
 C           -2.66208779       -0.94302264        2.60015773
 C           -1.88474192        1.26123319        3.36554560
 C           -2.84802236        0.43023538        2.65476170
 C           -0.20222530        2.38046370        1.96971724
 C           -1.51094938        2.32552241        2.45596507
 C            0.01973108        2.87612962        0.68382859
 C            2.01020752        1.51171012        0.53543811
 C            1.08865424        2.37383980       -0.07155334
 C            3.30349396       -0.49625916        0.21203931
 C            2.88298261        0.75138802       -0.24708037
 C            2.57361390       -2.75598899       -0.11859981
 C            3.17428910       -1.60936456       -0.62563006
 C            0.36953920       -3.41839089        0.30891955
 C            1.34810049       -3.22328189       -0.74288952
 C           -1.65184160       -2.63884694        1.32148954
 C           -2.67002998       -1.60471781        1.30835683
 C           -0.89969220       -2.87076976        0.17177844
 C           -2.84524499       -0.86359934        0.14811300
 C           -3.21915221        1.14409549        1.44149580
 C           -2.61421547        2.46002515        1.52820645
 C           -3.21562689        0.48512149        0.21178858
 C           -1.02786442        3.54920283        0.05434141
 C           -2.39088170        3.15344133        0.35581467
 C           -0.97391039        3.78989404       -1.36991805
 C            1.20299477        2.67219825       -1.44065196
 C            0.13481322        3.24956865       -2.11580800
 C            3.03666670        1.04777931       -1.59057163
 C            2.12163121        1.97750786       -2.21733500
 C            3.07244746       -1.39981499       -1.99661019
 C            3.24622384       -0.05420551       -2.50676586
 C            0.95727901       -2.63705741       -1.94012813
 C            1.93666539       -1.98664656       -2.69199979
 C           -1.25092562       -2.23593979       -1.02518138
 C           -2.36415307       -1.38528582       -1.04533418
 C           -0.38403709       -2.29815789       -2.12760100
 C           -2.77618356       -0.79315902       -2.22783820
 C           -3.21981276        1.25271717       -0.95982729
 C           -2.93620663        2.61755248       -0.87728928
 C           -2.19991487        3.25963963       -1.95009652
 C           -3.14189497        0.60986020       -2.19708500
 C           -0.39925988        2.56771615       -3.28412698
 C           -1.84395649        2.47854122       -3.11768683
 C           -2.47677608        1.26288854       -3.31909694
 C            1.66835254        1.38944471       -3.47101030
 C            2.34832061        0.11884709       -3.63573195
 C            1.55253900       -1.08558322       -3.76767394
 C            0.32160772        1.49617945       -3.81332791
 C           -0.76277341       -1.73315682       -3.34264830
 C           -2.02966325       -1.03904879       -3.44081850
 C           -1.78726790        0.24343815       -4.08303625
 C            0.21123144       -0.96041607       -4.09298976
 C           -0.35485597        0.36785094       -4.28997576
