   70
C70 / DATE: 7/ 1/2024 / Origin: Program Fullerene / C70 from database
 C            1.39538373       -0.09600233        4.17146704
 C            2.44672610       -0.24635820        3.18261799
 C            2.31789089       -1.57342879        2.59916709
 C            0.55133965       -1.27854474        4.10254229
 C            1.03920015       -2.11199991        3.01567220
 C           -0.83212799       -0.84337905        4.08514296
 C            0.53905033        1.07112952        4.11607525
 C           -0.84142241        0.61120615        4.14051844
 C            0.90080262        2.13257359        3.29579427
 C            2.78776849        0.82336118        2.35589299
 C            2.06383736        2.01644417        2.42539062
 C            3.52051401        0.55001018        1.20414970
 C            2.73208626       -1.76471862        1.28995681
 C            3.59659500       -0.82412012        0.73829850
 C            1.95552475       -2.55149703        0.43958367
 C            0.14813229       -2.56482733        2.04700595
 C            0.60361297       -2.77799146        0.74245996
 C           -1.72557441       -1.50598554        3.25392908
 C           -1.21996343       -2.47446172        2.29076315
 C           -2.80563198       -0.76905504        2.61641297
 C           -1.81943195        1.32317484        3.45447752
 C           -2.85086012        0.61169366        2.71289376
 C           -0.12203103        2.87606849        2.57715184
 C           -1.45385571        2.50658037        2.69078714
 C            1.77920508        2.75664764        1.20330231
 C            0.40702243        3.22393984        1.26867312
 C            3.34403715        1.38861029        0.03069499
 C            2.28417360        2.29091408       -0.00399540
 C            3.81189917       -0.79690944       -0.69949410
 C            3.65632939        0.58229516       -1.13903619
 C            2.44034525       -2.81308888       -0.83760642
 C            3.30343351       -1.83241287       -1.47285589
 C            1.54627014       -3.33288252       -1.84778877
 C           -0.31696644       -3.08127824       -0.27343301
 C            0.13118056       -3.39462221       -1.55332296
 C           -2.14532318       -2.50503584        1.17669920
 C           -3.07783937       -1.39906996        1.33783752
 C           -1.67230521       -2.79829028       -0.09378001
 C           -3.41115082       -0.62979485        0.22289101
 C           -3.17630201        1.39419595        1.53457415
 C           -2.30328817        2.55636325        1.51568032
 C           -3.47788676        0.76808854        0.32426432
 C           -0.40035834        3.11114183        0.14147466
 C           -1.78809585        2.97335888        0.29303207
 C            1.52222556        2.42248176       -1.16831633
 C            0.20405783        2.88871874       -1.10119781
 C            3.01734309        0.85922163       -2.33835271
 C            2.00743668        1.90167617       -2.36821303
 C            2.75335403       -1.54865600       -2.78896275
 C            1.71368214       -2.52745254       -3.04899033
 C            2.55037753       -0.23170010       -3.18226636
 C           -0.57085580       -2.84115055       -2.69757922
 C            0.39608097       -2.06931195       -3.45562133
 C           -2.43593693       -2.38621801       -1.18322481
 C           -3.31561617       -1.23787123       -1.02823412
 C           -1.83696664       -2.31570546       -2.50600105
 C           -3.20706320       -0.43444202       -2.23213414
 C           -2.14693454       -1.00555343       -3.05187115
 C           -3.42868327        1.55524779       -0.82804808
 C           -2.57854770        2.73641496       -0.82517828
 C           -3.33147235        0.94003761       -2.13996008
 C           -0.56474560        2.93032077       -2.26139974
 C           -2.00519775        2.88256904       -2.14435802
 C           -2.47875047        1.77777073       -2.96381114
 C            1.08041611        1.57113132       -3.43597245
 C            1.26277641        0.16173363       -3.73747052
 C            0.17360209       -0.70858831       -3.66269960
 C           -1.11905657       -0.19128021       -3.53122152
 C           -0.20287467        2.08291040       -3.38287711
 C           -1.32059653        1.18565260       -3.61200040
