   70
C70 / DATE: 7/ 1/2024 / Origin: Program Fullerene / C70 from database
 C            1.57515696        0.19392275        5.01580747
 C            0.77848893       -0.99070479        4.76499374
 C            1.62162922       -1.91843923        4.05079626
 C            2.71780154        0.14955053        4.11442994
 C            2.78201989       -1.18015799        3.56432278
 C            2.59423497        1.26873130        3.20282915
 C            0.77775325        1.34462410        4.64063357
 C            1.59948903        2.16092205        3.77534886
 C           -0.46638395       -0.57564979        4.14091176
 C           -0.49368441        0.87703086        4.11197191
 C           -0.94357235       -1.26518674        3.03276573
 C            1.05646240       -2.60698373        2.91150584
 C           -0.28220670       -2.41567572        2.57301608
 C            2.81338413       -1.33659047        2.12256048
 C            2.02364885       -2.51272837        1.84191781
 C            2.60059893        1.06451336        1.81464525
 C            2.66867752       -0.23124660        1.28102496
 C            2.17335632        2.11365119        1.00024520
 C            0.94290648        3.00635154        2.90764874
 C            1.51699760        3.18979438        1.59708847
 C           -1.01648572        1.53164141        2.99259806
 C           -0.47475675        2.77150195        2.66428846
 C           -1.81136807       -0.59491421        2.17511604
 C           -1.66605325        0.78490030        1.99854071
 C           -2.50089834       -1.34137106        1.23436104
 C           -0.69673937       -2.97124279        1.35994441
 C           -1.96650302       -2.64249545        0.89205561
 C            1.53302667       -2.67508551        0.56418526
 C            0.30076711       -3.30080606        0.43586745
 C            2.26018668       -0.46223922       -0.04016866
 C            1.89889584       -1.75891310       -0.42081994
 C            2.02007612        1.91545818       -0.37446226
 C            1.96908205        0.61318807       -0.88295277
 C            1.53274097        2.97191167       -1.14042407
 C            0.49145180        3.87309834        0.84969125
 C           -0.76901925        3.35908388        1.37260087
 C            0.63948763        3.94053905       -0.51857850
 C           -1.96543478        1.36734849        0.75221555
 C           -1.63419797        2.70484637        0.50121766
 C           -2.93752191       -0.70662758        0.00734720
 C           -2.52247918        0.58553270       -0.26903963
 C           -2.31649822       -2.91707927       -0.48953749
 C           -2.89718864       -1.70173863       -1.04882132
 C           -0.04486494       -3.72260222       -0.83650520
 C           -1.43272951       -3.65617090       -1.25833543
 C            1.45909301       -2.01063018       -1.71961517
 C            0.74765888       -3.19796538       -1.92993901
 C            1.51610350        0.37120547       -2.19161667
 C            1.34317342       -0.95358620       -2.63046892
 C            1.03075100        2.71714395       -2.47283694
 C            1.10747222        1.43998807       -3.00994151
 C           -0.57360964        3.95167254       -1.30379257
 C           -1.70817881        3.19622178       -0.80106331
 C           -0.23503999        3.42113275       -2.60267769
 C           -2.44203190        0.99814043       -1.59915230
 C           -2.15880346        2.33170763       -1.87763583
 C           -1.37922088        2.66326873       -3.06365475
 C           -2.56382128       -1.31275420       -2.34590307
 C           -2.39205854        0.05041190       -2.63230720
 C           -1.43133918       -3.45810808       -2.69623987
 C           -0.04162898       -3.38160885       -3.12531481
 C           -2.09491899       -2.28720690       -3.23331609
 C            0.85587056       -1.20503353       -3.91801619
 C            0.03934035       -2.37874088       -4.15858613
 C           -1.31486165       -1.90170990       -4.39182873
 C            0.24915389        1.18558927       -4.07503510
 C           -1.12489267        1.65193384       -3.96894620
 C           -1.91938782        0.44853598       -3.88510533
 C            0.19559386       -0.14148538       -4.63497605
 C           -1.21415149       -0.50161595       -4.71687884
