   70
C70 / DATE: 7/ 1/2024 / Origin: Program Fullerene / C70 from database
 C            1.58803140        0.23875968        5.02736837
 C            0.78570916       -0.95432470        4.82102499
 C            1.59568402       -1.89273491        4.08263891
 C            2.71182110        0.17096260        4.10811122
 C            2.78801544       -1.18819374        3.62704279
 C            2.55527048        1.24165323        3.13933970
 C            0.78269191        1.38180236        4.64231201
 C            1.53139962        2.13494159        3.65549267
 C           -0.48466571       -0.54615185        4.25246260
 C           -0.53864794        0.90402793        4.27169790
 C           -0.99766517       -1.20662535        3.13911844
 C            1.01519159       -2.54106441        2.92275286
 C           -0.30014200       -2.27587707        2.54984625
 C            2.88988075       -1.40983878        2.19959526
 C            2.02072011       -2.52208215        1.88443910
 C            2.57940782        0.95598606        1.77019213
 C            2.90451911       -0.33248691        1.31741907
 C            2.03377335        1.88568174        0.87447808
 C            0.80573863        2.88748069        2.74889566
 C            1.23390587        2.91352536        1.36248037
 C           -1.20262741        1.55316647        3.23432328
 C           -0.63832263        2.72253926        2.71866980
 C           -2.00752165       -0.57382545        2.41643157
 C           -2.09312677        0.82408426        2.43970104
 C           -2.67672077       -1.30467228        1.44104918
 C           -0.70559348       -2.73006703        1.29153448
 C           -2.00679421       -2.45809132        0.87799922
 C            1.58961680       -2.64226034        0.57384138
 C            0.27702817       -3.04082664        0.34140010
 C            2.73845453       -0.62275949       -0.03373283
 C            2.22017559       -1.87031855       -0.39809096
 C            1.99995736        1.59299366       -0.48992764
 C            2.62694719        0.43207393       -0.92662754
 C            1.05564964        2.22021720       -1.31615646
 C            0.08985047        3.33974988        0.57976692
 C           -1.08556373        3.22673733        1.43280081
 C           -0.00108142        2.94004870       -0.74808315
 C           -2.80571623        1.49604608        1.44727340
 C           -2.25424587        2.71944961        0.88987954
 C           -3.37523656       -0.62407194        0.36440712
 C           -3.43246492        0.75561874        0.36408298
 C           -2.35811634       -2.53401844       -0.52969104
 C           -3.08073668       -1.32177229       -0.87525522
 C           -0.08417185       -3.31799085       -0.97275596
 C           -1.43753162       -3.04282345       -1.42663955
 C            1.92139635       -2.11464377       -1.73851626
 C            0.82729320       -2.92896742       -2.04119340
 C            2.66064958        0.14647578       -2.28216963
 C            2.39831431       -1.22084448       -2.69336047
 C            1.01912795        1.91642971       -2.67962519
 C            1.95010140        1.01614063       -3.19725347
 C           -0.12357201        2.24404676       -3.40977396
 C           -1.25950146        2.89922785       -1.34960606
 C           -2.37065985        2.63548312       -0.55367549
 C           -3.18537123        1.47569320       -0.87206421
 C           -1.34322060        2.54817039       -2.68981613
 C           -2.71673077       -0.60233901       -2.01565500
 C           -2.90771070        0.78870009       -2.05162617
 C           -2.31495381        1.53282632       -3.06593790
 C           -1.34575840       -2.45547409       -2.75129452
 C            0.01558462       -2.65784640       -3.21831287
 C           -1.99168377       -1.25117362       -3.02767723
 C            1.78914714       -1.17701620       -4.01184641
 C            1.63599579        0.22232161       -4.37576937
 C            0.51321342       -1.83623481       -4.22007105
 C           -0.52030999        1.44464992       -4.55806752
 C           -1.81586774        0.86236115       -4.24468709
 C           -1.64890991       -0.57116654       -4.19373460
 C            0.34345836        0.37458798       -5.00829402
 C           -0.38277902       -0.87607659       -4.84288083
