   70
C70 / DATE: 7/ 1/2024 / Origin: Program Fullerene / C70 from database
 C            1.24117302        0.06114490        4.31539463
 C            2.51074613       -0.23435009        3.69458540
 C            2.53734205       -1.66162342        3.43820565
 C            0.42638973       -1.14764671        4.25794081
 C            1.16768131       -2.13508571        3.50899358
 C           -0.88463105       -0.75743396        3.78789105
 C            0.43541811        1.13315491        3.76885784
 C           -0.93746410        0.68778653        3.88017425
 C            0.82989403        1.78456173        2.59739593
 C            2.84230081        0.42890759        2.45048115
 C            1.95194731        1.33863344        1.88872494
 C            3.26071835       -1.86990156        2.20155018
 C            3.46126809       -0.55972535        1.58638125
 C            2.85372113       -2.91863798        1.39309314
 C            0.60402149       -2.70627899        2.36974114
 C            1.46208210       -3.35147955        1.47654250
 C           -1.42537804       -1.36867121        2.66070066
 C           -0.66424177       -2.29597937        1.92700337
 C           -2.54486471       -0.77281837        2.07128143
 C           -1.89030637        1.35379212        3.13428553
 C           -2.80671587        0.57630776        2.31451496
 C           -0.12023061        2.56420063        1.93069954
 C           -1.46001652        2.47413353        2.31934933
 C            0.18760497        3.12655336        0.68800258
 C            2.03996061        1.60167599        0.52728333
 C            1.30992268        2.65743820       -0.00665458
 C            3.32993554       -0.42585665        0.20272105
 C            2.69164015        0.70023326       -0.32436071
 C            3.20741556       -2.86172034       -0.00793966
 C            3.45419128       -1.55893558       -0.59653780
 C            1.00674730       -3.64791124        0.12929490
 C            2.13521169       -3.48620196       -0.76057513
 C           -1.13580794       -2.74566939        0.69013400
 C           -0.23107939       -3.17565138       -0.27966835
 C           -3.12921536       -1.36773618        0.95950427
 C           -2.44663968       -2.47464078        0.32362377
 C           -3.65825554       -0.51529658       -0.09560937
 C           -3.21912445        1.42605852        1.20639509
 C           -2.50472191        2.68654505        1.33512232
 C           -3.39512472        0.84850330       -0.04848591
 C           -0.81999285        3.82292836        0.01527475
 C           -2.19354502        3.39872810        0.19346688
 C           -0.67741389        4.14532191       -1.38912230
 C            1.53512096        3.01153525       -1.33429086
 C            0.55075439        3.78836311       -2.05923998
 C            2.50716207        0.79863480       -1.70728168
 C            2.04891045        2.00142213       -2.24134616
 C            2.84217439       -1.56704544       -1.91147783
 C            1.94327302       -2.71215951       -1.96776880
 C            2.41390849       -0.36857949       -2.47014609
 C           -0.43639564       -2.84509407       -1.62645610
 C            0.65206599       -2.50909262       -2.44189786
 C           -2.79241683       -2.45366048       -1.08530008
 C           -3.52161644       -1.22213411       -1.34861765
 C           -1.72598866       -2.55341241       -2.06283503
 C           -2.87266995       -0.54882317       -2.45291865
 C           -1.92456427       -1.48654004       -3.02840973
 C           -2.92433337        1.51520237       -1.18858127
 C           -2.62150807        2.87155179       -1.08790578
 C           -1.77726195        3.49227581       -2.08926088
 C           -2.50932403        0.78982747       -2.31835717
 C            0.19517496        3.03420470       -3.24715937
 C            1.17833427        1.97816510       -3.40880305
 C           -1.20430480        2.66273872       -3.12531801
 C           -1.54297651        1.31477293       -3.18626811
 C            1.45025662       -0.44552447       -3.47178049
 C            0.49117678       -1.53701233       -3.42521050
 C           -0.82532666       -0.98833429       -3.70616740
 C            0.74588674        0.75149765       -3.88700159
 C           -0.67807560        0.44986374       -3.85585729
