   70
C70 / DATE: 7/ 1/2024 / Origin: Program Fullerene / C70 from database
 C            1.69757252       -0.04632071        4.68462053
 C            0.85305124       -1.22569047        4.63242293
 C            1.26536134       -2.02703513        3.49129591
 C            2.59870397       -0.09835911        3.54774314
 C            2.40266973       -1.36242627        2.87542206
 C            2.41790666        1.10724667        2.76932126
 C            0.84132949        1.11286131        4.51437547
 C            1.28614547        1.82646016        3.32934691
 C           -0.52827994       -0.78830644        4.70555806
 C           -0.53700221        0.66468935        4.58145446
 C           -1.48209037       -1.53810115        4.03051329
 C            0.28284107       -2.58917769        2.67160851
 C           -1.03587568       -2.58819988        3.12608630
 C            0.56288741       -2.78225377        1.30824066
 C            2.49509559       -1.39175970        1.49466345
 C            1.82457355       -2.40845339        0.83489759
 C            2.51358584        1.01981014        1.38510713
 C            2.77720013       -0.21388485        0.78937864
 C            1.86945965        1.98236673        0.62680388
 C            0.34016598        2.35019275        2.45310975
 C            0.71423116        2.58831291        1.13217498
 C           -1.47121401        1.28044936        3.75710036
 C           -1.01972775        2.22943111        2.74884304
 C           -2.60289102       -0.87018683        3.38916565
 C           -2.55212323        0.50038128        3.17453253
 C           -2.11278807       -2.83064365        2.19393276
 C           -3.06188314       -1.73331634        2.31856484
 C           -0.47043182       -3.02802797        0.38621621
 C           -1.79482245       -2.97654304        0.79149985
 C           -0.21071221       -2.88646842       -0.97612043
 C            2.14727731       -2.61843417       -0.49426619
 C            1.10011130       -3.04427763       -1.39426234
 C            2.85749360       -0.28760391       -0.60737602
 C            2.86938662       -1.56112346       -1.17365389
 C            2.09598532        2.01000523       -0.74375893
 C            2.47886772        0.82245287       -1.38830090
 C            1.46759755        3.02035548       -1.45820841
 C           -0.26015069        3.01912528        0.23703415
 C            0.14871375        3.43055321       -1.02032654
 C           -1.98221119        2.20105568        1.65673879
 C           -2.83059629        1.03970471        1.84766357
 C           -1.54416945        2.50765359        0.37662321
 C           -3.25789393       -1.17633363        0.99199907
 C           -2.69454023       -2.12345215        0.04656628
 C           -3.06332811        0.18719122        0.76918698
 C           -1.12648013       -2.17974506       -1.77450164
 C           -2.27086923       -1.63918359       -1.18090089
 C           -0.77323922       -1.73478448       -3.05799412
 C            1.48533424       -2.63071972       -2.72435793
 C            2.62003309       -1.72632712       -2.58577137
 C            0.50628052       -1.96964982       -3.55829588
 C            2.37314268        0.70434281       -2.79039873
 C            2.33662625       -0.55578941       -3.37980296
 C            1.21467174       -0.89690193       -4.23736600
 C            1.45601259        2.97792252       -2.90044014
 C            1.89878952        1.76976711       -3.55396801
 C           -0.74357879        3.20594871       -2.13967153
 C            0.09012642        3.23959431       -3.33032768
 C           -2.12716806        1.85874431       -0.71278942
 C           -2.73498871        0.61087170       -0.52209898
 C           -2.64767257       -0.35028676       -1.52843389
 C           -1.75643112        2.25351665       -2.00247360
 C           -1.55527322       -0.74960130       -3.66281370
 C           -2.43486682        0.05549995       -2.83310471
 C           -2.11584562        1.44602331       -3.08244285
 C            0.48658291        0.13214394       -4.81592086
 C            0.95590615        1.49533638       -4.62904002
 C           -0.20577166        2.34778218       -4.43000637
 C           -0.95650813        0.13676262       -4.64934161
 C           -1.37029503        1.49481341       -4.33127566
