   70
C70 / DATE: 7/ 1/2024 / Origin: Program Fullerene / C70 from database
 C            1.20372036       -0.04873722        4.41297675
 C            2.43027661       -0.36461115        3.72079862
 C            2.39083771       -1.77423542        3.36240330
 C            0.37268658       -1.24334268        4.42784065
 C            1.08281697       -2.29086299        3.71998614
 C           -0.95823376       -0.86325396        3.98230549
 C            0.39251537        1.03998486        3.91163346
 C           -0.98690992        0.58752288        3.88182590
 C            0.84963555        1.83666942        2.86516882
 C            2.76278723        0.38223360        2.52234142
 C            1.92411022        1.40529385        2.07214523
 C            2.84556413       -1.89072187        1.98636942
 C            3.27309975       -0.57326538        1.55776594
 C            2.13793899       -2.68381311        1.08679050
 C            0.39447445       -3.06335175        2.79696717
 C            1.03211991       -3.41005579        1.53589874
 C           -1.60925339       -1.62226709        3.01441074
 C           -1.00611306       -2.77650986        2.51162142
 C           -2.64770314       -1.03470523        2.29889793
 C           -1.86365720        1.19578668        2.98666643
 C           -2.81641359        0.41083179        2.34211441
 C           -0.06464584        2.73293293        2.33174117
 C           -1.48288396        2.41011872        2.41927214
 C            0.17506976        3.31300430        1.02744536
 C            1.99823285        1.77485471        0.72154265
 C            1.14654277        2.75833392        0.20464054
 C            3.17388440       -0.25936034        0.21427520
 C            2.81934573        1.03961900       -0.13599748
 C            2.29284099       -2.44534775       -0.28196300
 C            2.95670560       -1.28760856       -0.70111236
 C            1.50302442       -3.15425554       -1.18663267
 C           -0.03224870       -3.74729792        0.60649328
 C           -1.26092369       -3.17688495        1.13456332
 C            0.21582436       -3.66065684       -0.75093573
 C           -2.92280445       -1.47494317        0.93953488
 C           -2.05819672       -2.36919413        0.32643112
 C           -3.36386511        0.82907993        1.06044460
 C           -3.42330120       -0.33897767        0.19465052
 C           -2.11909177        2.88259789        1.19934405
 C           -1.11987819        3.65350259        0.46959766
 C           -3.00715040        2.05588049        0.51007403
 C           -1.23816060        3.79084115       -0.90270820
 C            1.08336651        2.98712757       -1.17509162
 C           -0.09224937        3.48010713       -1.74250951
 C            2.94926973        1.42449555       -1.46179330
 C            1.99868627        2.36570373       -2.01695142
 C            3.05348249       -0.99523715       -2.05926120
 C            3.19156999        0.39485134       -2.45781566
 C            1.32908880       -2.65988643       -2.54270938
 C            2.14498129       -1.63377525       -2.99561551
 C           -0.78360953       -3.04487824       -1.60226927
 C           -1.75484309       -2.22263570       -1.03045426
 C           -0.10172960       -2.62337397       -2.81281549
 C           -3.09634219       -0.19637205       -1.14730373
 C           -2.27478750       -1.14633759       -1.76399088
 C           -3.18943301        2.23792433       -0.85891789
 C           -2.41811979        3.25397274       -1.55052150
 C           -3.25016695        1.06578436       -1.71952963
 C           -0.58511073        2.87662287       -2.97156791
 C           -2.02128473        2.71776928       -2.84149750
 C           -2.58849593        1.39118289       -2.97301296
 C            1.52918484        1.82831954       -3.28557652
 C            2.29828727        0.63349953       -3.57881543
 C            1.59725807       -0.60201414       -3.86367844
 C            0.16563400        1.86491680       -3.56358956
 C           -0.64031453       -1.58457362       -3.55512935
 C           -1.84372825       -0.93054918       -3.07324596
 C           -1.84399550        0.41554078       -3.61312597
 C            0.23072481       -0.55722014       -4.10808629
 C           -0.47994341        0.71420669       -4.03275342
