   70
C70 / DATE: 7/ 1/2024 / Origin: Program Fullerene / C70 from database
 C            1.53952879        0.06608828        4.97866303
 C            0.75588222       -1.15685280        4.98847451
 C            1.48154125       -2.15725512        4.22912542
 C            2.66003781       -0.13453600        4.07657639
 C            2.66741165       -1.52199827        3.67555893
 C            2.57707677        0.87227309        3.03780701
 C            0.70841365        1.12114776        4.42251636
 C            1.38895782        1.67145965        3.27248961
 C           -0.59492599       -0.82152420        4.57974433
 C           -0.62101779        0.59121844        4.22749424
 C           -1.29854925       -1.71327696        3.77797973
 C            0.79851788       -2.84764380        3.14576384
 C           -0.57855130       -2.73288667        3.02010931
 C            2.70558537       -1.81896586        2.25787151
 C            1.62238275       -2.73272663        1.95560820
 C            2.86689588        0.53500133        1.71977685
 C            2.96861933       -0.80769955        1.33861505
 C            2.47623432        1.44099107        0.74076227
 C            0.63851003        2.04684918        2.16213021
 C            1.30184755        2.17317096        0.94724330
 C           -1.33727548        0.97765220        3.09883154
 C           -0.74219156        1.82264428        2.14395377
 C           -2.33262864       -1.18582891        2.90698441
 C           -2.42396556        0.19060652        2.72333607
 C           -1.16888750       -2.79432499        1.69293587
 C           -2.40476670       -2.04259380        1.73441826
 C            1.02855559       -2.63431044        0.69869504
 C           -0.36230226       -2.68479820        0.56730157
 C            2.74642307       -1.10181621       -0.00368802
 C            1.76849564       -2.05052612       -0.32734626
 C            2.89049193        1.20748310       -0.56467840
 C            3.06032002       -0.12763678       -0.94616204
 C            2.55725967        2.17087451       -1.51022511
 C            0.59845443        2.65391928       -0.15373049
 C            1.30680757        2.88213854       -1.32915114
 C           -1.46922939        2.16158519        0.99539600
 C           -0.78869306        2.47773490       -0.19542484
 C           -3.23598190        0.64083175        1.69661244
 C           -2.81471691        1.81344405        0.95987118
 C           -2.90279647       -1.48795618        0.56123333
 C           -3.65466667       -0.32668099        0.70025521
 C           -0.93924877       -2.27520841       -0.63501746
 C           -2.22799614       -1.71604844       -0.64714837
 C            1.24636621       -2.06865984       -1.61899009
 C           -0.13565325       -2.19582933       -1.77161199
 C            2.97902399       -0.49379281       -2.28573832
 C            2.01348933       -1.51489630       -2.64145616
 C            2.72114716        1.89045127       -2.92146082
 C            2.96467288        0.52358036       -3.31766953
 C            0.60840410        2.86769947       -2.59759296
 C            1.52353627        2.35168146       -3.60341610
 C           -1.45504104        2.46473205       -1.43633952
 C           -0.71960151        2.47067792       -2.62318333
 C           -3.51672507        1.77713918       -0.30305127
 C           -4.02727085        0.42217662       -0.47586178
 C           -2.79900174        2.11622168       -1.50954896
 C           -2.73122895       -1.15896461       -1.83261159
 C           -3.56785203       -0.04396347       -1.76456129
 C           -3.20812251        1.14896390       -2.50901190
 C           -0.73149042       -1.96049729       -3.00412101
 C           -2.06826781       -1.39624630       -3.03443203
 C            1.39452340       -1.13138771       -3.89818090
 C            1.95718213        0.15186283       -4.29687569
 C            1.07135483        1.29129818       -4.48654405
 C            0.03911691       -1.35948647       -4.08187073
 C           -1.21001440        1.79657941       -3.74614642
 C           -2.42197378        0.99990951       -3.63732751
 C           -2.07967229       -0.35064390       -4.04606971
 C           -0.29282493        1.06460627       -4.60778231
 C           -0.76993632       -0.30723084       -4.67010667
