   70
C70 / DATE: 7/ 1/2024 / Origin: Program Fullerene / C70 from database
 C            1.29615884       -0.04465127        4.93858811
 C            0.54773731       -1.22203648        4.54224134
 C            1.47659122       -2.11640524        3.89211582
 C            2.56393576       -0.07132452        4.22484833
 C            2.69608217       -1.37005892        3.61022446
 C            2.60985006        1.09618080        3.37203482
 C            0.55892355        1.11817952        4.47999095
 C            1.46355925        1.93135631        3.69610957
 C           -0.62214822       -0.78475866        3.79784590
 C           -0.65664500        0.66606739        3.83548913
 C           -0.96123969       -1.42369360        2.60633051
 C            1.06520748       -2.73044923        2.65082182
 C           -0.22853232       -2.53667118        2.17288505
 C            2.92736871       -1.44386591        2.17619141
 C            2.14820449       -2.56520848        1.70488110
 C            2.97857837        0.97590450        2.03087711
 C            2.94669554       -0.28241142        1.40581675
 C            2.82218807        2.11597361        1.25404128
 C            0.92840650        2.70107731        2.67146315
 C            1.79929107        3.06820854        1.65134766
 C           -1.07024117        1.34793488        2.69796233
 C           -0.42701674        2.54198821        2.36073002
 C           -1.75477129       -0.73569884        1.68270048
 C           -1.78971618        0.66191153        1.71457288
 C           -2.22033264       -1.41542165        0.55808533
 C           -0.48404253       -3.01709814        0.89376294
 C           -1.69235962       -2.68187575        0.29548645
 C            1.80219234       -2.62606297        0.36740121
 C            0.61522875       -3.27545216        0.07064799
 C            2.65510823       -0.38395564        0.03570424
 C            2.21346685       -1.60967662       -0.49815774
 C            2.78091430        2.00475906       -0.18800553
 C            2.74227741        0.75036341       -0.77710653
 C            1.26978950        3.68967566        0.45372532
 C            1.90107713        3.04892063       -0.69321638
 C           -0.97380323        3.31045009        1.34141091
 C           -0.08195733        3.98527262        0.40863797
 C           -2.30154030        1.37571678        0.62840609
 C           -2.06507870        2.74895178        0.56621365
 C           -2.88265885       -0.70642523       -0.44910703
 C           -2.76689412        0.68935668       -0.50288301
 C           -3.41939444       -1.39791039       -1.53402321
 C           -2.04077923       -3.35613693       -0.86805601
 C           -3.00769879       -2.76636259       -1.76797059
 C            0.39426216       -3.60361169       -1.25399639
 C           -0.96310557       -3.89200679       -1.67449997
 C            1.82455977       -1.69691940       -1.84505091
 C            1.00647415       -2.75261335       -2.25871909
 C            2.36086065        0.67931538       -2.10962658
 C            1.91581781       -0.57966896       -2.66425045
 C            1.17074861        2.81418082       -1.85932601
 C            1.52905005        1.73797117       -2.66531964
 C           -0.73826864        4.02031362       -0.88084935
 C           -2.04293339        3.40221336       -0.72111757
 C           -0.08781107        3.38960289       -2.01757413
 C           -2.88427854        1.35700277       -1.73759703
 C           -2.28584331        2.59516795       -1.88824199
 C           -1.11824219        2.67346063       -2.75195083
 C           -3.44251919       -0.74878843       -2.82412512
 C           -2.95641732        0.60597473       -2.89785537
 C           -2.46258315       -2.84356093       -3.11837634
 C           -1.12392213       -3.38298014       -3.02236223
 C            0.01316541       -2.51869764       -3.29846126
 C           -2.63547073       -1.54608802       -3.73122927
 C            0.84820017       -0.29924962       -3.61487042
 C            0.54191303        1.12277564       -3.54174752
 C           -0.78547243        1.54942814       -3.50912567
 C           -1.79896236        0.62850687       -3.77989909
 C           -0.17967961       -1.22141585       -3.77476044
 C           -1.46152472       -0.75495064       -4.07013337
