   70
C70 / DATE: 7/ 1/2024 / Origin: Program Fullerene / C70 from database
 C            1.42716780       -0.32584049        5.07895634
 C            0.59666835       -1.50249736        4.91147726
 C            1.18571424       -2.32101330        3.86349819
 C            2.56046165       -0.45865305        4.18259447
 C            2.36519988       -1.64435284        3.37316715
 C            2.70966747        0.80329748        3.48726972
 C            0.66151018        0.82793712        4.63470385
 C            1.48817149        1.56847001        3.70959884
 C           -0.69706924       -1.05887895        4.42855770
 C           -0.62639793        0.36479316        4.16872795
 C            0.14009473       -2.63381685        2.91373622
 C           -1.05575789       -1.91652795        3.32046444
 C            0.44042270       -2.65478925        1.55295536
 C            2.54051230       -1.51511051        2.00069418
 C            1.67995126       -2.17809857        1.11057714
 C            3.22473131        0.78667976        2.19528281
 C            3.30466960       -0.44542265        1.53367847
 C            3.01170183        1.93136376        1.43597116
 C            0.89415376        2.17775215        2.60744564
 C            1.75953698        2.64150459        1.62453542
 C           -1.10060979        0.81766513        2.94067661
 C           -0.41596840        1.82351381        2.24494073
 C           -1.82889114       -1.38112314        2.30343095
 C           -1.98832081        0.00257123        2.23485566
 C           -0.63073911       -2.62428035        0.66571222
 C           -1.83647587       -2.06797595        1.10323838
 C           -0.37391243       -2.69126838       -0.70072349
 C            1.91263153       -2.05086822       -0.26550276
 C            0.85100230       -2.21067951       -1.17472423
 C            3.72651374       -0.48217278        0.21141480
 C            3.10036555       -1.44778308       -0.67243192
 C            3.31424835        1.91619141        0.01811328
 C            3.85044401        0.76238213       -0.52939525
 C            1.24478436        2.98623857        0.31753503
 C            2.23173953        2.60484441       -0.67477975
 C           -0.93506890        2.23722365        1.01325089
 C           -0.09037858        2.76920246        0.03298087
 C           -2.61037850        0.52306989        1.10140663
 C           -2.19129963        1.76831443        0.62836548
 C           -2.77350419       -1.68365360        0.15828277
 C           -3.23650740       -0.36503365        0.21936169
 C           -1.46460059       -2.78363442       -1.56124867
 C           -2.75388053       -2.35947689       -1.05383016
 C           -1.34956665       -2.27225464       -2.91102344
 C            0.94191805       -1.70786384       -2.48654326
 C           -0.21611995       -1.54897641       -3.24850175
 C            3.22301005       -0.93754353       -2.01806473
 C            3.59143415        0.46788964       -1.92328412
 C            2.08034463       -1.02290048       -2.89799936
 C            1.79088850        2.14514054       -1.91541334
 C            2.56865280        1.22489944       -2.62152710
 C            1.91644259        0.28293699       -3.51000764
 C           -0.47985723        2.72283332       -1.30328273
 C            0.44947772        2.32499376       -2.27541831
 C           -2.74725319        2.26797566       -0.54618722
 C           -1.84198038        2.72033708       -1.58580572
 C           -4.02984132        0.15330663       -0.80132997
 C           -3.82645237        1.53506058       -1.18351405
 C           -3.54402278       -1.87528069       -2.16539574
 C           -2.66107873       -1.78319030       -3.31591017
 C           -4.22947054       -0.60919812       -2.02105813
 C           -2.32173750        2.20354925       -2.85508960
 C           -3.60730009        1.57131747       -2.62078872
 C           -2.77930790       -0.44232099       -3.86039218
 C           -3.84302689        0.23631544       -3.13915240
 C           -0.33830044       -0.43049814       -4.07569513
 C            0.67078263        0.60998301       -4.01277504
 C            0.00576383        1.78706727       -3.48390537
 C           -1.61877086        0.24768873       -4.18841227
 C           -1.41693208        1.61866893       -3.72834458
