   70
C70 / DATE: 7/ 1/2024 / Origin: Program Fullerene / C70 from database
 C            1.39406534        0.03307690        4.83676831
 C            0.59602793       -1.16592635        4.63543630
 C            1.40273048       -2.11749926        3.90946430
 C            2.60866452       -0.11227696        4.05705088
 C            2.67316063       -1.47892440        3.59572801
 C            2.62792680        0.94375902        3.06458103
 C            0.64996215        1.15464162        4.28887263
 C            1.42357729        1.73997310        3.21569636
 C           -0.66881356       -0.75969365        4.05921709
 C           -0.67761254        0.68634299        3.97551296
 C           -1.21303088       -1.46336976        2.98438670
 C            0.87625803       -2.67118993        2.67591483
 C           -0.41170595       -2.35772957        2.25221291
 C            2.93989951       -1.71100995        2.19041429
 C            1.94339205       -2.63804547        1.69767095
 C            3.05256129        0.67073240        1.77196249
 C            3.29486603       -0.65064896        1.36046032
 C            2.73454550        1.60784806        0.79843828
 C            0.75818181        2.15458265        2.06005872
 C            1.48107634        2.23424158        0.86665674
 C           -1.33243699        1.23370657        2.88659561
 C           -0.63872973        2.07499745        2.00386417
 C           -2.30482887       -0.87600271        2.33923901
 C           -2.41256649        0.51955052        2.38681649
 C           -2.89661375       -1.57957725        1.29508827
 C           -0.73872133       -2.62809178        0.92253268
 C           -2.06077344       -2.48018893        0.52770107
 C            1.61524492       -2.55755036        0.35103886
 C            0.27494962       -2.64982839       -0.04332000
 C            3.33093796       -0.90893497       -0.01275510
 C            2.52613467       -1.94424088       -0.50695211
 C            3.37928138        1.48345157       -0.41972412
 C            3.69636957        0.13933101       -0.85467388
 C            2.88460349        2.22466070       -1.55563220
 C            0.82086988        2.62569436       -0.30496758
 C            1.53151094        2.73244697       -1.49868070
 C           -1.29971394        2.49290659        0.84515048
 C           -0.57540520        2.61212369       -0.34908630
 C           -3.24828781        1.19015247        1.50849875
 C           -2.68236482        2.32058593        0.79975295
 C           -3.79555547       -0.90398544        0.37646885
 C           -4.06051705        0.44487884        0.56833190
 C           -2.37471146       -2.29816192       -0.87742863
 C           -3.53050279       -1.42127108       -0.96083863
 C           -0.04014165       -2.52691463       -1.40239215
 C           -1.33728914       -2.16750998       -1.79506352
 C            2.32108387       -2.08348314       -1.87336239
 C            1.00194280       -2.48965122       -2.32594200
 C            3.43780953        0.05774157       -2.28072919
 C            2.99991610        1.37216025       -2.72597519
 C            2.81999662       -1.07359012       -2.79154412
 C            0.87445585        2.37163317       -2.74249891
 C            1.76722328        1.49417965       -3.48428229
 C           -1.21830619        2.50455375       -1.59306345
 C           -0.48829568        2.10452561       -2.71465356
 C           -3.38312633        2.44292206       -0.45882955
 C           -4.28978047        1.30834189       -0.57546536
 C           -2.60504475        2.51336229       -1.67349335
 C           -3.67820927       -0.60307950       -2.07234830
 C           -4.14378086        0.76404529       -1.91043857
 C           -3.22940380        1.63140470       -2.63459071
 C           -1.55784367       -1.46972395       -2.99422038
 C           -1.03108704        1.15779866       -3.59473698
 C           -2.63892916       -0.59404412       -3.08509233
 C           -2.36330578        0.79128876       -3.43470950
 C            0.77395029       -1.88084878       -3.61595551
 C            1.84623923       -0.92953546       -3.86071153
 C            1.24433411        0.37153226       -4.10895719
 C           -0.48223685       -1.20232913       -3.83449118
 C           -0.19407711        0.18968310       -4.13997672
