   70
C70 / DATE: 7/ 1/2024 / Origin: Program Fullerene / C70 from database
 C            1.25509923       -0.07204028        4.18107598
 C            2.53970203       -0.37971871        3.59878353
 C            2.45982769       -1.71797523        3.02840862
 C            0.42110798       -1.25445735        4.04704490
 C            1.08331687       -2.15080729        3.12495712
 C           -0.91597591       -0.80758842        3.71408704
 C            0.50273782        1.04775226        3.65176636
 C           -0.88773301        0.64484520        3.60774269
 C            1.00627283        1.79341904        2.59225697
 C            3.06003791        0.49126098        2.56537872
 C            2.30060102        1.56447536        2.09705110
 C            3.08068090       -1.66888838        1.71997229
 C            3.71400325       -0.36809756        1.60031671
 C            2.40413450       -2.18468785        0.61808401
 C            0.40610199       -2.51468039        1.96813811
 C            1.10812464       -2.70216970        0.77060864
 C           -1.65025249       -1.51647904        2.76990152
 C           -0.98755545       -2.43766865        1.94771228
 C           -2.81509724       -0.91208580        2.31080803
 C           -1.74089651        1.25535941        2.69085639
 C           -2.86882075        0.53977420        2.28661584
 C            0.11837757        2.58128056        1.86262606
 C           -1.25195608        2.28549750        1.87716641
 C            0.63141234        3.48814276        0.94033968
 C            2.69699218        2.18218769        0.90802164
 C            1.97498896        3.27448266        0.43705118
 C            3.95021586        0.13521378        0.33242586
 C            3.54852061        1.50118111        0.03346115
 C            2.86981017       -1.85138999       -0.65468414
 C            3.60490714       -0.67823832       -0.82296756
 C            2.23629714       -2.38656576       -1.76896625
 C            0.44337367       -3.23949817       -0.33588923
 C            1.06527032       -3.21880488       -1.58057227
 C           -1.67202555       -3.05132601        0.90600958
 C           -0.92835622       -3.48500227       -0.26363409
 C           -3.47757115       -1.41047849        1.11898674
 C           -2.93960254       -2.50228501        0.45366639
 C           -3.60838385        0.94061310        1.10181426
 C           -3.96203339       -0.26390598        0.36495592
 C           -2.08941553        2.84718589        0.91391857
 C           -3.22213836        2.08403920        0.41902994
 C           -0.19495546        3.94983322       -0.16361319
 C           -1.51605432        3.54202695       -0.22307405
 C            1.96335461        3.55164422       -0.98956554
 C            0.60125335        3.86820932       -1.37361918
 C            3.32659169        1.58067327       -1.40360733
 C            3.24203109        0.22156471       -1.90597504
 C            2.45796020        2.53734638       -1.89985682
 C            1.97362683       -1.51245508       -2.90286027
 C            2.20082302       -0.14895711       -2.75064052
 C            0.25661998       -3.10046704       -2.78225625
 C            0.75440670       -1.96239742       -3.53825485
 C           -1.77046499       -3.26640592       -1.43302154
 C           -2.95618411       -2.54654214       -0.99961931
 C           -1.17951491       -2.94835249       -2.64851739
 C           -3.90231797       -0.27084775       -1.02427116
 C           -3.39762385       -1.44333690       -1.72326063
 C           -3.14586859        2.07143547       -1.03547772
 C           -1.98507294        2.85789628       -1.41833984
 C           -3.43151812        0.90781985       -1.73561165
 C            0.19753792        2.93262320       -2.40978804
 C            1.34847556        2.11078873       -2.73931897
 C            1.15793560        0.75577873       -2.99540083
 C           -1.05664794        2.33777456       -2.32274607
 C           -0.33080642       -1.01764354       -3.67621337
 C           -1.55487998       -1.71756424       -3.33049286
 C           -2.63626118       -0.97926009       -2.87355161
 C           -2.50334345        0.46289417       -2.75882960
 C           -0.13968798        0.28900782       -3.23410874
 C           -1.24351495        1.05504168       -2.84243432
