   70
C70 / DATE: 7/ 1/2024 / Origin: Program Fullerene / C70 from database
 C            1.36831977       -0.11671948        4.44323265
 C            2.59423436       -0.49706613        3.78226197
 C            2.49395760       -1.89866776        3.40706704
 C            0.51545044       -1.29397498        4.51472718
 C            1.20984417       -2.39647225        3.86990329
 C           -0.79901205       -0.90953058        4.02611821
 C            0.57813567        0.96252278        3.87593325
 C           -0.80868868        0.53948158        3.94254154
 C            1.02686857        1.64181844        2.73776857
 C            2.99209953        0.23969240        2.60437946
 C            2.32049791        1.40508150        2.24416872
 C            2.82738900       -2.01049555        1.99207802
 C            3.30793336       -0.71716699        1.55730244
 C            1.99309532       -2.74145876        1.15638113
 C            0.48914176       -3.23656755        3.03337021
 C            1.05714418       -3.59217085        1.74579842
 C           -1.39109724       -1.66225001        3.01200291
 C           -0.91543214       -2.94940195        2.78563496
 C           -2.16915332       -1.01851829        2.03946073
 C           -1.71800954        1.14529302        3.09848694
 C           -2.54215064        0.30338692        2.24947677
 C            0.09086561        2.34885307        1.96468126
 C           -1.26025261        2.24284567        2.26927022
 C            0.46468742        2.93306805        0.75302154
 C            2.68351549        1.95395242        1.02366436
 C            1.80073156        2.89574607        0.37468392
 C            3.11994441       -0.31803941        0.24083090
 C            3.17471933        1.04919944       -0.00591227
 C            1.84195444       -2.35243920       -0.18365728
 C            2.37810462       -1.12663498       -0.62633341
 C            0.98465808       -3.08732170       -1.01869316
 C           -0.03716808       -4.10536001        0.95361758
 C           -1.27388602       -3.63344758        1.56105139
 C           -0.08709566       -3.76061840       -0.44469812
 C           -2.32928161       -1.57640422        0.76330621
 C           -2.00600431       -2.90539162        0.54420660
 C           -1.42483055       -3.26963815       -0.72827629
 C           -2.57588374       -0.75269302       -0.34061649
 C           -2.94718310        1.11422087        1.11905806
 C           -2.22794583        2.37725229        1.20487235
 C           -3.09790417        0.52810790       -0.13273344
 C           -0.50607753        3.30956293       -0.19013544
 C           -1.85817626        2.99031884        0.01739697
 C           -0.08058059        3.76803896       -1.44192742
 C            2.13991551        2.86611675       -1.03451954
 C            2.73893123        1.56752713       -1.28684812
 C            1.21807624        3.35296756       -1.93977933
 C            2.09367722       -0.66313642       -1.91560382
 C            2.13666074        0.70926553       -2.19861780
 C            0.79924155       -2.67827824       -2.33210188
 C            1.53834663       -1.54095466       -2.83198159
 C           -1.56304404       -2.41183401       -1.81078097
 C           -2.21347657       -1.17980609       -1.63377211
 C           -0.57217684       -2.50772344       -2.78054736
 C           -2.31243563       -0.29482175       -2.71862479
 C           -3.23671059        1.39442711       -1.20883215
 C           -2.67971096        2.73005650       -1.07634364
 C           -2.94083778        0.93173415       -2.54712753
 C           -0.98689234        3.74324069       -2.57727007
 C           -2.31032172        3.19632921       -2.39340148
 C           -2.47470831        2.08156492       -3.31296539
 C            0.97673117        2.59944907       -3.15661265
 C            1.34841233        1.25658246       -3.22073090
 C           -0.33686107        2.99204426       -3.64102842
 C           -1.25568744        1.96059729       -4.09419738
 C            0.78516248       -1.01336022       -3.95197114
 C           -0.55944465       -1.56730209       -3.87236500
 C           -1.48295948       -0.45660994       -3.82899537
 C            0.64959156        0.42177585       -4.08618551
 C           -0.75695817        0.69015465       -4.34356849
