   70
C70 / DATE: 7/ 1/2024 / Origin: Program Fullerene / C70 from database
 C            1.55604417       -0.05632203        4.77566347
 C            0.77268630       -1.24625848        4.50314131
 C            1.45313077       -2.01417381        3.47315090
 C            2.70310343       -0.07012949        3.88802430
 C            2.64912336       -1.28548504        3.09204164
 C            2.74453130        1.20398183        3.19426880
 C            0.74290530        1.09189872        4.41920504
 C            1.46939748        1.86474520        3.42405422
 C           -0.59652078       -0.83159267        4.25886693
 C           -0.58725046        0.61168863        4.07937897
 C           -1.35932835       -1.60198203        3.39644733
 C            0.68747054       -2.61374900        2.47949892
 C           -0.69971346       -2.64973101        2.63601335
 C            1.23694088       -2.79416266        1.20802294
 C            2.98932528       -1.21128185        1.74600877
 C            2.39165600       -2.09056827        0.84005361
 C            3.28184113        1.22569807        1.91756875
 C            3.58349066       -0.04013711        1.27119362
 C            2.67134200        2.07278929        0.90730013
 C            0.75562911        2.37242859        2.34134137
 C            1.39665460        2.58007243        1.11395644
 C           -1.22024598        1.16855435        2.97092430
 C           -0.63516518        2.28194911        2.36981941
 C           -2.27877646       -0.94312957        2.48461650
 C           -2.15270412        0.41757841        2.24493918
 C           -1.54555352       -2.93579519        1.49188221
 C           -2.48349537       -1.83030637        1.35593499
 C            0.48369418       -3.45887121        0.24051956
 C           -0.96487953       -3.46235369        0.35093970
 C            0.81954951       -3.32985975       -1.16773579
 C            2.79267953       -2.05207176       -0.49522560
 C            1.95633694       -2.63726942       -1.52996309
 C            3.62792456        0.21619929       -0.15660603
 C            2.99025939        1.50463608       -0.38822849
 C            3.36197276       -0.82615948       -1.02777565
 C            2.07500681        1.63125242       -1.43023009
 C            0.63429889        2.96060771        0.00921922
 C            0.93029932        2.42403499       -1.25708957
 C           -1.35653506        2.96027879        1.40294042
 C           -0.62956663        3.47865923        0.26375774
 C           -2.67263315        0.94579608        1.06295029
 C           -2.53864647        2.31551807        0.87207271
 C           -2.71142009       -1.28496149        0.09493074
 C           -2.88246179        0.10095928       -0.04216079
 C           -1.50166034       -3.08591640       -0.94279199
 C           -0.41176322       -3.10825415       -1.90443841
 C           -2.44759659       -2.06819651       -1.03072997
 C           -0.45343046       -2.21046300       -2.97030858
 C            1.89502100       -1.70280283       -2.63946495
 C            2.68285827       -0.53642440       -2.27613653
 C            2.14142586        0.72774046       -2.49297221
 C            0.70589948       -1.50412420       -3.33971104
 C            1.26537059        0.87147537       -3.55806443
 C            0.60538115       -0.31884624       -4.07058933
 C            0.06089680        2.62647175       -2.34107335
 C            0.28300937        1.93546534       -3.52843044
 C           -1.58039390        3.62025954       -0.81373216
 C           -2.78163471        2.88837710       -0.43096632
 C           -1.20477658        3.16990802       -2.13343738
 C           -3.20785695        0.63489779       -1.29948431
 C           -3.11454485        2.00633493       -1.52489732
 C           -2.36574911        2.48418831       -2.67465053
 C           -2.71375453       -1.55285847       -2.29015862
 C           -1.71438647       -1.73219591       -3.33141901
 C           -3.22950275       -0.20458242       -2.40917788
 C           -0.65937119        0.08924831       -4.64503102
 C           -0.86026484        1.49165650       -4.31476738
 C           -2.19451710        1.63651883       -3.75803776
 C           -1.84779370       -0.63480834       -4.26634381
 C           -2.79326306        0.31395543       -3.69881796
