   70
C70 / DATE: 7/ 1/2024 / Origin: Program Fullerene / C70 from database
 C            1.41345734        0.13365019        4.86841876
 C            0.66966589       -1.10144887        4.72350299
 C            1.59249820       -2.09388997        4.22645975
 C            2.63758011       -0.00346323        4.09216029
 C            2.79561970       -1.39901848        3.77906630
 C            2.57015651        0.94444935        2.99983352
 C            0.62751127        1.18983807        4.25852215
 C            1.47520587        1.84818236        3.29628853
 C           -0.51920375       -0.81380416        3.94361731
 C           -0.61135030        0.62500326        3.76399587
 C           -0.85612559       -1.62508103        2.86911687
 C            1.17166794       -2.93625795        3.12612837
 C           -0.08013712       -2.75034758        2.53675194
 C            3.00932307       -1.78021843        2.39665022
 C            2.32137218       -3.04532462        2.25403743
 C            2.74375335        0.52901204        1.66912364
 C            2.88663119       -0.83421850        1.36939614
 C            2.33844121        1.41962234        0.66569516
 C            0.87117884        2.43616931        2.20866720
 C            1.65684495        2.56355070        1.08259311
 C           -1.11089584        1.11993570        2.55616988
 C           -0.49766266        2.24159882        1.99708511
 C           -1.75614474       -1.11968091        1.93917880
 C           -1.81300051        0.26116130        1.71000153
 C           -2.29497376       -1.99577749        1.01788115
 C           -0.32056176       -3.40469385        1.32288380
 C           -1.51925006       -3.16490965        0.65082403
 C            2.10567047       -3.51374917        0.97683607
 C            0.76517902       -3.94968787        0.63108627
 C            2.62295577       -1.29703905        0.07427178
 C            2.53305826       -2.67644810       -0.12633280
 C            2.15170103        0.96270964       -0.64785300
 C            2.15276996       -0.41032987       -0.90646509
 C            1.67434132        1.85519598       -1.62098491
 C            1.19565249        3.45095781        0.13932322
 C            1.48336411        3.18395395       -1.24494175
 C           -1.03172730        2.79981631        0.83404723
 C           -0.22252860        3.73549077        0.19303375
 C           -2.29446257        0.75118897        0.48779510
 C           -1.92946564        2.04280625        0.06203855
 C           -2.92620414       -1.47445104       -0.17215107
 C           -3.01984114       -0.09961003       -0.35808475
 C           -1.59695434       -3.31019225       -0.79753438
 C           -2.50147657       -2.29126895       -1.29540625
 C            0.74203686       -4.00952171       -0.81794527
 C            1.84940604       -3.18804845       -1.29192143
 C           -0.45219867       -3.59161583       -1.52300614
 C            1.56135176       -0.88870124       -2.08621219
 C            1.31499533       -2.24800418       -2.24349770
 C           -0.03788780       -2.66426305       -2.55936148
 C            1.02229755        1.35368592       -2.75636133
 C            0.80704538       -0.01733050       -2.86647629
 C            0.38682867        2.21450239       -3.65530755
 C            0.56105974        4.02780025       -1.97839793
 C           -0.59202118        4.23174236       -1.10801712
 C            0.06196151        3.56348084       -3.24785054
 C           -2.33405252        2.51118468       -1.20246063
 C           -1.72796924        3.63829348       -1.76668989
 C           -1.38740099        3.63751532       -3.17884754
 C           -3.36314602        0.33009670       -1.63406954
 C           -3.12689508        1.70506111       -2.01447607
 C           -2.22600103       -1.64482921       -2.49425222
 C           -0.91733762       -1.68280180       -2.99608215
 C           -0.35603349       -0.50344430       -3.47951692
 C           -2.99326325       -0.51513623       -2.76400941
 C           -0.77181350        1.73244814       -4.38119836
 C           -1.90328266        2.57683426       -4.01387109
 C           -2.92261733        1.71275687       -3.45617194
 C           -1.17800858        0.35598890       -4.19306030
 C           -2.58068756        0.35892318       -3.84366679
