   70
C70 / DATE: 7/ 1/2024 / Origin: Program Fullerene / C70 from database
 C            1.63104861        0.21758326        5.86204963
 C            0.76436272       -0.93701329        6.01371531
 C            1.37925050       -2.03739268        5.29615557
 C            2.65621076       -0.11265086        4.88294561
 C            2.51277121       -1.51011803        4.55103319
 C            2.57141076        0.86467610        3.80969351
 C            0.83426969        1.28748802        5.29554975
 C            1.61200049        1.87695532        4.22399010
 C           -0.50089495       -0.63403522        5.36010964
 C           -0.47822647        0.75725492        4.95846819
 C            0.41485111       -2.51768998        4.32349814
 C           -0.73269826       -1.63400621        4.33814021
 C            2.31899377       -1.86441153        3.15995587
 C            1.11254070       -2.66357259        3.06381730
 C            2.57140648        0.44778838        2.47197037
 C            2.53613302       -0.92059815        2.15622482
 C            2.18958571        1.37607960        1.49237263
 C            0.90920438        2.53158553        3.22921678
 C            1.42119613        2.47170341        1.87567379
 C           -1.01721283        1.10891496        3.72229324
 C           -0.51392853        2.25350157        3.11517151
 C           -1.22836090       -1.22538579        3.10489018
 C           -1.57563996        0.11579346        2.90578660
 C            0.37918629       -2.52052718        1.89468071
 C           -0.90807259       -1.99403295        1.98315279
 C            2.12842686       -1.27977683        0.87434354
 C            1.09276128       -2.20541518        0.75003230
 C            2.14720365        0.98598851        0.15166356
 C            2.29693779       -0.36280350       -0.15071468
 C            1.46463279        1.79511754       -0.76650781
 C            0.32019054        2.87183376        1.02299273
 C           -0.88993159        2.54485396        1.74822271
 C            0.36677794        2.52362673       -0.31735294
 C           -2.08235820        0.46422382        1.64980799
 C           -1.80734000        1.72915830        1.10930502
 C           -1.56328380       -1.69999312        0.78860189
 C           -2.38349971       -0.57543558        0.76926616
 C            0.40661418       -2.24896490       -0.45508990
 C           -0.97681861       -2.11662209       -0.41394229
 C            1.98794237       -0.77071295       -1.44034847
 C            1.06684732       -1.80701427       -1.59033171
 C            1.48660078        1.43497959       -2.11279142
 C            2.03025156        0.19282992       -2.43458706
 C            0.48177807        1.94657116       -2.93759364
 C           -0.84242339        2.36128509       -0.99441619
 C           -1.95014351        1.90073614       -0.26730407
 C           -0.78258785        2.16243471       -2.37737680
 C           -3.02591849       -0.25797706       -0.41669056
 C           -2.88139896        1.09841535       -0.90311898
 C           -1.65937444       -1.88826729       -1.61119711
 C           -2.81964507       -1.12073062       -1.56232038
 C            0.43071218       -1.94546946       -2.82104152
 C           -0.97327823       -1.99161148       -2.83008910
 C            1.91157994       -0.25786558       -3.74146713
 C            1.12147292       -1.45920538       -3.93090706
 C            0.60532606        1.75703398       -4.30958819
 C            1.47902450        0.68813359       -4.74786867
 C           -0.59770427        1.69534392       -5.11392689
 C           -1.92981468        1.73807338       -3.06193466
 C           -2.90333900        1.04773273       -2.34941588
 C           -3.18808359       -0.33007359       -2.71856334
 C           -1.86203019        1.50355130       -4.43406439
 C           -1.68163555       -1.72423795       -4.00908501
 C           -2.76930383       -0.75892264       -3.96466018
 C           -2.44370642        0.26733238       -4.93490202
 C            0.46365584       -1.36520270       -5.21799019
 C            0.79945439       -0.06729468       -5.78436031
 C           -0.43968520        0.62340258       -6.08646608
 C           -0.97141104       -1.51490703       -5.26048662
 C           -1.52286313       -0.32204466       -5.88629010
