   70
C70 / DATE: 7/ 1/2024 / Origin: Program Fullerene / C70 from database
 C            1.27302208       -0.06030098        4.39887249
 C            2.50857961       -0.32853053        3.70013954
 C            2.49435952       -1.72298188        3.29271851
 C            0.42958631       -1.23867349        4.29398158
 C            1.20974585       -2.29031907        3.66730632
 C           -0.82712921       -0.83570021        3.67782141
 C            0.48703125        1.07253709        3.96739565
 C           -0.85447135        0.60937320        3.65632385
 C            1.04749363        2.01333300        3.11420251
 C            2.82874525        0.47581848        2.53355203
 C            2.07429331        1.60987462        2.24195990
 C            2.91038579       -1.78644828        1.90029905
 C            3.16389380       -0.42969511        1.44956614
 C            2.26150773       -2.66455938        1.03677346
 C            0.57492753       -3.12726375        2.76354017
 C            1.27631753       -3.50792508        1.55144728
 C           -1.29153809       -1.54135895        2.57694174
 C           -0.78936299       -2.82039671        2.35989466
 C           -1.90465110       -0.85770532        1.52208292
 C           -1.54434292        1.27349286        2.64786664
 C           -2.05745984        0.54090929        1.56983209
 C            0.17643096        3.00450624        2.68671670
 C           -1.20489647        2.60851433        2.44674441
 C            0.58320334        3.86311872        1.59822647
 C            2.09034073        2.08669476        0.92687756
 C            1.54581112        3.33551806        0.65920350
 C            2.80976855       -0.08908002        0.15031627
 C            2.33685305        1.19881201       -0.12572695
 C            2.27230433       -2.39379169       -0.33417193
 C            2.60766671       -1.10857750       -0.77638756
 C            1.63855704       -3.28631924       -1.20142238
 C            0.26593432       -4.04167011        0.65905838
 C           -1.00624854       -3.46423453        1.07921818
 C            0.55008285       -4.10578561       -0.69489485
 C           -2.33757841       -1.57598962        0.40003621
 C           -1.81612152       -2.84622178        0.13326464
 C           -3.10199239       -0.93982592       -0.57128415
 C           -2.60713523        1.22178032        0.47423059
 C           -3.25048222        0.50260582       -0.52647633
 C           -1.66237270        3.29376056        1.25673539
 C           -0.61130649        4.21161857        0.85536136
 C           -2.32863065        2.57785754        0.27009261
 C            1.05944801        3.63235266       -0.67554366
 C           -0.25250511        4.26138464       -0.54567920
 C            2.00453225        1.54900713       -1.44190369
 C            1.27981579        2.71705423       -1.70163934
 C            2.46666057       -0.77044345       -2.11533821
 C            2.16599953        0.60915857       -2.45953564
 C            1.29211095       -2.87231513       -2.55180190
 C            1.69113701       -1.62384614       -2.99825028
 C           -0.55483115       -3.98623730       -1.62652881
 C           -1.75645171       -3.30426964       -1.18207805
 C           -0.07115515       -3.29819994       -2.81029904
 C           -2.94234520       -1.32287162       -1.96566849
 C           -2.18588597       -2.44119240       -2.26621732
 C           -1.06217091       -2.29942939       -3.17781927
 C           -3.20763877        0.98699373       -1.89675966
 C           -2.71491110       -0.10508877       -2.71923276
 C           -2.34507929        3.10319793       -1.02480372
 C           -1.23386143        3.93610269       -1.46889563
 C           -2.75523750        2.27251148       -2.14371810
 C            0.48998541        2.79807343       -2.84966706
 C           -0.80913919        3.43621304       -2.75925640
 C           -1.80191126        2.47992644       -3.21910561
 C            1.22378433        0.58640889       -3.56643609
 C            0.72822424       -0.77270706       -3.67808144
 C           -0.63903435       -1.02321418       -3.54282699
 C           -1.52973508        0.04910298       -3.44199102
 C            0.33022709        1.63277245       -3.69948338
 C           -1.09115407        1.33278406       -3.75967534
