   70
C70 / DATE: 7/ 1/2024 / Origin: Program Fullerene / C70 from database
 C            1.00856228       -0.07149479        4.93231929
 C            2.30920448       -0.31841174        4.34324917
 C            2.24754485       -1.61831586        3.69044488
 C            0.18345546       -1.23704718        4.65379968
 C            0.85962735       -2.00980662        3.62900169
 C           -1.15449558       -0.76701838        4.38893102
 C            0.25555479        1.10202602        4.52548625
 C           -1.12511478        0.68986622        4.37111157
 C            0.80062967        1.99347818        3.60787036
 C            2.84702477        0.62804872        3.38058409
 C            2.13459100        1.77373531        3.05981179
 C            2.96924648       -1.51454547        2.44826977
 C            3.44308211       -0.14750287        2.31256050
 C            2.45394166       -2.12225524        1.31146365
 C            0.26200151       -2.17462753        2.37516724
 C            1.06713639       -2.34013392        1.23310671
 C           -1.80288522       -1.18949106        3.16653428
 C           -1.11771139       -1.96903422        2.23175274
 C           -1.87337507        1.12366170        3.20090962
 C           -2.54497355       -0.04759979        2.67842579
 C           -0.03118833        2.53715789        2.54373183
 C           -1.30350775        2.01391054        2.29570641
 C            2.13522695        2.24412880        1.68379862
 C            0.84031543        2.84093078        1.42009914
 C            3.51980675        0.36919721        1.02205684
 C            2.74273014        1.49090826        0.68248003
 C            3.15745038       -1.86477340        0.14397640
 C            3.80121955       -0.56457767        0.03248667
 C            2.55492281       -2.16049746       -1.13387052
 C            0.45327704       -2.52296173       -0.01503889
 C            1.18796322       -2.37713964       -1.19938493
 C           -1.69414654       -2.08556172        0.96746203
 C           -0.93646791       -2.61293694       -0.07828907
 C           -2.89991052       -0.06090986        1.34332633
 C           -2.79190327       -1.26866531        0.67514410
 C           -1.80525891        2.05117795        0.99129311
 C           -2.76011296        1.10490326        0.59508195
 C            0.31119231        2.76762671        0.14163715
 C           -1.07016887        2.72098497        0.01559495
 C            2.33104075        1.68867770       -0.64451880
 C            1.10224972        2.30382479       -0.91318436
 C            3.74412381       -0.16048931       -1.35096844
 C            3.15090195       -1.25908229       -2.09389652
 C            2.99644432        1.03339758       -1.67063180
 C            2.28741893       -0.68011665       -3.09560922
 C            2.29319109        0.76404649       -2.90649467
 C            0.52390564       -2.16314222       -2.41272986
 C            1.06768821       -1.28863521       -3.36754692
 C           -1.54943447       -2.83443422       -1.30937405
 C           -0.79723327       -2.58000623       -2.52537638
 C           -3.39877946       -1.35781859       -0.56425091
 C           -2.89298755       -2.32832083       -1.50993374
 C           -3.19625303        1.08773014       -0.73461052
 C           -3.65422342       -0.11804419       -1.28076421
 C           -1.61685954        2.87985849       -1.24490579
 C           -2.80922454        2.12544690       -1.57789112
 C            0.55398719        2.27149516       -2.20520590
 C            1.12266167        1.45395167       -3.19611238
 C           -0.72603875        2.80559064       -2.38739804
 C            0.21403865       -0.57414398       -4.20077023
 C            0.30353530        0.87488996       -4.16492853
 C           -1.68532096       -1.93610087       -3.48192644
 C           -2.97019362       -1.74235455       -2.83559797
 C           -3.50199609       -0.39487039       -2.70292160
 C           -1.18731859       -0.93282539       -4.29894921
 C           -2.81008815        1.93034656       -3.01742336
 C           -1.53396422        2.41079540       -3.52709033
 C           -1.01181558        1.41365106       -4.42980287
 C           -3.03675205        0.60059641       -3.55102152
 C           -1.94719063        0.29965183       -4.46625655
