   70
C70 / DATE: 7/ 1/2024 / Origin: Program Fullerene / C70 from database
 C            1.06968528       -0.04527326        4.66049730
 C            2.33704051       -0.32162954        4.02840480
 C            2.25801707       -1.66200608        3.46706800
 C            0.24643342       -1.23621687        4.50602673
 C            0.86670697       -2.04497664        3.47576921
 C           -1.11095875       -0.78942376        4.30812690
 C            0.28436387        1.07299798        4.17675503
 C           -1.09153966        0.66497842        4.32750817
 C            0.66297231        1.73247751        3.00283028
 C            2.78531345        0.55462305        2.96647428
 C            1.97641663        1.59855970        2.52467428
 C            2.93703744       -1.63503081        2.19330276
 C            3.43684660       -0.28568854        1.97862090
 C            2.36989702       -2.28926312        1.11066181
 C            0.22398478       -2.22876068        2.24893415
 C            0.98795584       -2.54372217        1.11180411
 C           -1.79941708       -1.18181389        3.09577358
 C           -1.11777487       -1.85761317        2.09075148
 C           -2.03468919        1.11336261        3.33520196
 C           -2.63161270       -0.06042550        2.71847636
 C           -0.31832087        2.37376979        2.21909591
 C           -1.68449355        2.15844770        2.49652509
 C            0.06839978        3.10666643        1.08125829
 C            2.33937900        2.21356756        1.33677527
 C            1.36873375        2.99842922        0.60783501
 C            3.55405037        0.17325581        0.66577635
 C            3.14052002        1.47388866        0.36916507
 C            3.00830406       -2.08800062       -0.09935798
 C            3.58536485       -0.77686266       -0.35538167
 C            2.38274840       -2.54413493       -1.31639643
 C            0.32988924       -2.82458883       -0.09763195
 C            1.07893632       -3.01808831       -1.26912703
 C           -1.66090751       -1.84788281        0.81460478
 C           -1.05008461       -2.60424747       -0.17337367
 C           -3.05254384        0.05494238        1.39520064
 C           -2.62697503       -0.89476566        0.46076962
 C           -2.62746395        2.45337261        1.52507017
 C           -3.35574752        1.33594483        0.94333160
 C           -0.88894183        3.58415927        0.18916692
 C           -2.28695828        3.36864000        0.46825274
 C           -0.68354324        3.37413164       -1.23792792
 C            1.58364397        2.77608454       -0.81499953
 C            2.63676549        1.79315091       -0.96095770
 C            0.48289248        2.73588903       -1.66155271
 C            3.20112204       -0.40058120       -1.70520051
 C            2.75809260       -1.61274240       -2.36787954
 C            2.50358031        0.78497829       -1.90453094
 C            1.93119689       -1.50470688       -3.47238437
 C            0.43567796       -3.23977863       -2.48449203
 C            0.91805513       -2.52846476       -3.65798502
 C           -1.73251800       -2.78693307       -1.36669347
 C           -1.00949060       -3.23417008       -2.53461966
 C           -2.96202583       -0.72945236       -0.88788879
 C           -2.67275365       -1.76149832       -1.78002792
 C           -3.48560858        1.58210793       -0.47992872
 C           -2.92256091        2.89538524       -0.74847550
 C           -1.96667500        3.02901889       -1.83124218
 C           -3.23210968        0.55243390       -1.37930116
 C           -2.00064460        2.08959029       -2.84708320
 C           -2.81663232        0.89933366       -2.66465872
 C            0.42458183        1.77533172       -2.67921203
 C            1.44250371        0.81919121       -2.81446683
 C            1.30589906       -0.21940268       -3.74163698
 C           -0.74910833        1.64124283       -3.41993802
 C           -0.22247375       -1.91326844       -4.31044390
 C           -1.42032386       -2.40786344       -3.65933684
 C           -2.39645428       -1.45026558       -3.17303848
 C           -2.29101807       -0.11972622       -3.55259889
 C            0.01349059       -0.48020652       -4.35447419
 C           -1.03412909        0.38952231       -4.09624509
