   70
C70 / DATE: 7/ 1/2024 / Origin: Program Fullerene / C70 from database
 C            1.52719199       -0.26873844        5.17570106
 C            0.67193808       -1.44328380        5.17051304
 C            1.20796115       -2.38166372        4.20136889
 C            2.60407800       -0.50058400        4.23053917
 C            2.46769501       -1.84929644        3.71184597
 C            2.61726199        0.60572710        3.28706513
 C            0.74805116        0.85381251        4.68113570
 C            1.46365898        1.44426697        3.56951017
 C           -0.63549476       -1.03435391        4.69544821
 C           -0.60313241        0.39675898        4.44343624
 C            0.15819230       -2.68834402        3.23781127
 C           -1.01131709       -1.90609849        3.59120342
 C            0.49790580       -2.81037392        1.89389350
 C            2.78940040       -2.06744938        2.38227957
 C            1.84583942       -2.78957314        1.54739681
 C            2.93555837        0.35028369        1.95568258
 C            3.26042502       -0.94966649        1.57724653
 C            2.45671772        1.21759972        0.97766693
 C            0.73373149        1.93311708        2.49207476
 C            1.38126026        2.06046970        1.27489733
 C           -1.26057493        0.84831382        3.30757860
 C           -0.65748237        1.81287478        2.48842591
 C           -1.76810081       -1.35105806        2.56675643
 C           -2.16065161       -0.02564064        2.71598200
 C           -0.45749705       -2.51754391        0.91348839
 C           -1.63731223       -1.85700518        1.26913478
 C           -0.10425792       -2.60574613       -0.43307332
 C            2.21176381       -2.49875068        0.18005073
 C            3.08645433       -1.34120470        0.18583196
 C            1.24295142       -2.54678260       -0.79964165
 C            2.76634976        0.96498007       -0.35836039
 C            2.87167974       -0.36003158       -0.78227457
 C            2.45805398        1.94660213       -1.28863836
 C            0.72177568        2.70059062        0.23633257
 C            1.44490585        2.92062232       -0.92801263
 C           -1.37412858        2.24697542        1.36191575
 C           -0.68053464        2.66505756        0.20807312
 C           -3.02064396        0.50116861        1.77908426
 C           -2.69307928        1.80916794        1.25089247
 C           -2.47161039       -1.33563030        0.27059477
 C           -3.35522782       -0.31988826        0.63626003
 C           -1.06646351       -2.35441671       -1.41280663
 C           -2.16906367       -1.54920679       -1.08599861
 C           -0.67585830       -2.50034991       -2.74509369
 C            1.55630494       -1.95826627       -2.01127028
 C            2.25611471       -0.74225160       -1.98406056
 C            0.71770686       -2.25579120       -3.06834371
 C            2.22220564        1.56550674       -2.66760181
 C            2.04250835        0.22178396       -2.98032679
 C            0.75459905        3.31405335       -2.13135960
 C            1.31201581        2.54601065       -3.23183150
 C           -1.37687230        2.90570385       -0.99595767
 C           -0.68040142        3.17356632       -2.16942853
 C           -3.39022886        1.92489038       -0.00755092
 C           -3.85665956        0.59127732       -0.36436321
 C           -2.68062466        2.45563928       -1.14535936
 C           -2.84055079       -0.81009164       -2.08485407
 C           -3.49823271        0.35966415       -1.73852975
 C           -2.99993203        1.61040344       -2.28303080
 C           -1.47493156       -1.90227526       -3.78680032
 C           -2.41937721       -0.88435357       -3.40546056
 C            0.77470287       -1.43879710       -4.25532809
 C            1.32227923       -0.10601353       -4.13090983
 C           -0.57513851       -1.33113292       -4.77651790
 C            0.21444088        2.07725594       -4.05498378
 C           -1.02983710        2.43928131       -3.38051706
 C           -2.11372598        1.55191672       -3.35695330
 C           -2.04662015        0.35607451       -4.07600313
 C            0.32750705        0.82870248       -4.64673809
 C           -0.88562293        0.08153488       -4.89913759
