   70
C70 / DATE: 7/ 1/2024 / Origin: Program Fullerene / C70 from database
 C            1.63886507        0.02941069        4.70769929
 C            0.82344602       -1.15974322        4.54732036
 C            1.46642545       -2.01388333        3.56707013
 C            2.69230107       -0.01838509        3.70753974
 C            2.56867618       -1.25982642        2.98543597
 C            2.63734016        1.20632320        2.95090006
 C            0.80318702        1.17823186        4.40712118
 C            1.51170734        1.98920357        3.44245563
 C           -0.53782264       -0.73638654        4.29538643
 C           -0.50934851        0.69610407        4.03876787
 C           -1.32334478       -1.53800386        3.48599191
 C            0.67298462       -2.78245813        2.71738720
 C           -0.71685357       -2.67987567        2.80976917
 C            1.24177325       -3.20998949        1.52175890
 C            2.71428944       -1.26523826        1.60160973
 C            2.33324634       -2.43153151        0.95709330
 C            2.84867022        1.17020614        1.57491157
 C            2.71966078       -0.05154848        0.88616335
 C            2.57751426        2.35336037        0.90350790
 C            0.77989399        2.70306573        2.50113312
 C            1.50878501        3.19036241        1.42353362
 C           -1.08635845        1.19950918        2.87410154
 C           -0.56847235        2.36812997        2.30227932
 C           -2.21101008       -0.90420873        2.53042745
 C           -1.97512973        0.40520702        2.14099908
 C           -1.54694392       -2.97039586        1.65007301
 C           -2.51179340       -1.88717031        1.51435188
 C            0.39977757       -3.65865932        0.42321792
 C           -0.98247701       -3.51071369        0.49680132
 C            2.19835859       -2.44749750       -0.47808705
 C            1.09425277       -3.33294995       -0.81444489
 C            2.48301898       -0.05707965       -0.50653053
 C            2.35802679       -1.27274898       -1.19335945
 C            2.47051724        2.35672168       -0.53471401
 C            2.36299700        1.15079120       -1.21233250
 C            0.82310539        3.79118665        0.29838870
 C            1.58520327        3.45161688       -0.89273622
 C           -1.27208520        2.95704027        1.25355399
 C           -0.56267696        3.75009726        0.26213516
 C           -2.41210593        0.82642668        0.88622326
 C           -2.27072640        2.16642418        0.55426740
 C           -2.85491289       -1.47130762        0.23474765
 C           -2.70879380       -0.11613882       -0.11035178
 C           -1.70940542       -3.41500593       -0.68719403
 C           -2.78566880       -2.44096826       -0.75532526
 C            0.35962937       -3.08437487       -1.96901829
 C           -1.00630435       -3.35631098       -1.95873937
 C            1.93884757       -1.28046551       -2.51773836
 C            0.89322620       -2.21134685       -2.91916474
 C            1.87177768        1.16339229       -2.52132791
 C            1.71879783       -0.03098548       -3.21165851
 C            0.94673328        3.40646756       -2.12132038
 C            1.26997727        2.31751786       -3.02402189
 C           -1.23813319        3.58030619       -1.01278288
 C           -2.26416248        2.56042766       -0.83961840
 C           -0.49472073        3.60404443       -2.18665782
 C           -2.79935753        0.29034211       -1.45495451
 C           -2.44849882        1.59293614       -1.82073144
 C           -2.95625548       -2.06269287       -2.13625737
 C           -1.88942949       -2.69124851       -2.90205238
 C           -2.96088278       -0.65684999       -2.46576137
 C            0.03018297       -1.53047928       -3.87508274
 C            0.58551037       -0.20795521       -4.11105556
 C           -1.34693306       -1.68874562       -3.79765152
 C           -2.19811721       -0.51321311       -3.69111880
 C            0.15575793        2.19090178       -3.94411171
 C           -0.98275375        2.85633662       -3.33113882
 C           -2.00233765        1.84727970       -3.11865297
 C           -0.27105061        0.86146681       -4.34303483
 C           -1.67959732        0.73554477       -3.99539587
