   70
C70 / DATE: 7/ 1/2024 / Origin: Program Fullerene / C70 from database
 C            1.05758053       -0.05953078        4.97104486
 C            2.40869927       -0.41851743        4.60330259
 C            2.33697519       -1.69006207        3.88808746
 C            0.23556227       -1.23120196        4.73421955
 C            0.93952723       -2.03879327        3.75747133
 C           -1.08198539       -0.74747102        4.39503144
 C            0.41436044        1.03996291        4.27007078
 C           -0.98662796        0.69695595        4.21432939
 C            1.02973851        1.59050041        3.14297399
 C            3.14851093        0.50432527        3.76894543
 C            2.41900629        1.53250692        3.04268538
 C            3.13086812       -1.56014987        2.68759384
 C            3.83775584       -0.29534492        2.77907617
 C            2.58713221       -1.91633464        1.45575612
 C            0.39006127       -2.19487435        2.48324136
 C            1.22467203       -2.24154234        1.35502398
 C           -1.71737595       -1.26587922        3.20276987
 C           -0.99487549       -2.06355732        2.31451804
 C           -1.73165201        1.02438432        3.01922142
 C           -2.46877811       -0.16368265        2.64806025
 C            0.26962549        1.92230780        2.00843260
 C           -1.12070849        1.74166283        1.99959935
 C            0.91448490        2.31349242        0.82562800
 C            3.04343997        1.64469315        1.73889410
 C            3.93897212        0.50522159        1.57620229
 C            2.27814200        2.04511284        0.64957031
 C            3.25617220       -1.46715005        0.32219159
 C            3.90947502       -0.16562606        0.36464019
 C            2.63282477       -1.60303813       -0.97733180
 C            0.65001442       -2.45281898        0.09530136
 C            1.35195423       -2.11557577       -1.06941090
 C           -1.54412227       -2.24758357        1.04556148
 C           -0.72027330       -2.70202847        0.01499576
 C           -2.86458112       -0.28182254        1.32961538
 C           -2.69439844       -1.51680622        0.72552503
 C           -1.79147079        1.79309179        0.78125799
 C           -2.78384773        0.84089857        0.51323942
 C            0.15344084        2.71087120       -0.28102573
 C           -1.22970297        2.51070092       -0.26681422
 C            0.80768462        2.91918272       -1.49388439
 C            2.75133187        1.74339537       -0.62707895
 C            3.46204887        0.56172415       -0.80484183
 C            2.95100430       -0.41715575       -1.74712166
 C            2.07179945        2.25219498       -1.72124923
 C            2.04510175        0.01248708       -2.70949291
 C            1.88308840        1.38688510       -2.87277535
 C            0.65420566       -1.91431085       -2.25732075
 C            1.00359596       -0.84025550       -3.08822097
 C           -1.28678936       -2.96659544       -1.23051450
 C           -0.55970700       -2.56684374       -2.42151677
 C           -3.29257825       -1.69889560       -0.51073034
 C           -2.68003040       -2.62519661       -1.43765780
 C           -3.31703784        0.74849109       -0.77296871
 C           -3.68245835       -0.51198314       -1.25988989
 C           -1.98291999        2.68719065       -1.42628797
 C           -3.10730842        1.79857995       -1.65994704
 C            0.06659345        2.85967328       -2.74218283
 C            0.73756715        1.89130338       -3.60618751
 C           -1.31799450        2.90603810       -2.69857307
 C            0.13638054       -0.42506907       -4.09916329
 C           -0.01209522        0.99817790       -4.36019088
 C           -1.51781268       -2.09452471       -3.40724166
 C           -2.82527250       -2.08155637       -2.77677545
 C           -3.54747154       -0.82361054       -2.67627576
 C           -1.16913129       -1.04548181       -4.24473628
 C           -3.20498103        1.56072469       -3.08941404
 C           -2.08791999        2.23280560       -3.73145993
 C           -1.41923006        1.27063599       -4.58659304
 C           -3.24947292        0.19303876       -3.57336477
 C           -2.13878680        0.01165309       -4.49583792
