   70
C70 / DATE: 7/ 1/2024 / Origin: Program Fullerene / C70 from database
 C            1.31732278       -0.17552668        4.55606674
 C            2.57248308       -0.29631991        3.83847320
 C            2.53606873       -1.54455000        3.09616043
 C            0.46336718       -1.28361346        4.15060380
 C            1.18328553       -2.05888157        3.16437246
 C           -0.82999245       -0.73744290        3.79123345
 C            0.54013596        1.04293871        4.42184106
 C           -0.84538009        0.64297351        4.23849711
 C            1.04763264        2.10818652        3.68247889
 C            2.96523222        0.75227057        2.91420667
 C            2.23982029        1.93471733        2.86127894
 C            3.10498015       -1.30298069        1.77973961
 C            3.37706028        0.11709561        1.67418527
 C            2.53204214       -1.93385620        0.67740954
 C            0.56054846       -2.37937947        1.96775541
 C            1.36755358       -2.67716376        0.87555517
 C           -1.38776843       -1.05661774        2.55281149
 C           -0.77247178       -2.01324825        1.74181035
 C           -2.37269086       -0.22447913        2.01456916
 C           -1.73067564        1.51701890        3.63019542
 C           -2.66538339        0.98105743        2.65795038
 C            0.13092516        2.96836115        2.95230945
 C           -1.23687907        2.77926655        3.09371715
 C            1.98758174        2.55373047        1.57184707
 C            0.68365004        3.18897130        1.62132889
 C            3.11979758        0.73102670        0.45455231
 C            2.36402746        1.90780277        0.40311401
 C            2.77823024       -1.40020625       -0.59164387
 C            3.17613021       -0.05814244       -0.68955016
 C            2.27470745       -2.07092763       -1.71342293
 C            0.77530468       -3.29707384       -0.20918550
 C            1.32633055       -3.07556058       -1.53201086
 C           -1.36747767       -2.37147505        0.53165649
 C           -0.66959469       -3.23171600       -0.31885594
 C           -2.84180097       -0.45423410        0.71188445
 C           -2.43399386       -1.61575034        0.03527674
 C           -3.48345445        0.58333105        0.00693266
 C           -3.10905134        2.10310158        1.86787378
 C           -2.10110438        3.14240342        1.98660788
 C           -3.33284647        1.88113740        0.46411525
 C           -0.15038473        3.13179862        0.50132570
 C           -1.51422068        3.32719330        0.66883066
 C           -2.43064679        2.74100061       -0.28393071
 C            1.67730628        2.21733337       -0.76943972
 C            0.32643148        2.56776199       -0.68788338
 C            3.07616853        0.60028894       -1.90634022
 C            2.19292089        1.74824843       -1.96848542
 C            2.47411595       -1.54638212       -2.98816341
 C            2.89475907       -0.16898963       -3.11552155
 C            1.47710683       -1.78034034       -4.01921355
 C            0.23817331       -3.23153042       -2.48603700
 C           -1.00503337       -3.30367841       -1.73002553
 C            0.27933818       -2.53472530       -3.68646736
 C           -2.93986196       -1.89378777       -1.23592326
 C           -2.13471844       -2.64366438       -2.18666228
 C           -3.60708371        0.47643188       -1.36760950
 C           -3.58042936       -0.83076444       -1.97191531
 C           -1.95124143        2.25765834       -1.49757571
 C           -0.56859380        2.15809996       -1.69465519
 C           -2.78211130        1.36666943       -2.17003479
 C            1.29410689        1.53782183       -3.08322767
 C            1.90393569        0.52289213       -3.92343501
 C            1.05752751       -0.48076454       -4.52470302
 C           -0.07714274        1.51268972       -2.83876631
 C           -0.86387200       -1.73134964       -4.08689521
 C           -2.07828336       -1.88326584       -3.42945089
 C           -2.90395877       -0.70362213       -3.24955778
 C           -2.26420680        0.60279798       -3.28354360
 C           -0.37139471       -0.38482103       -4.32553298
 C           -0.91235925        0.67275449       -3.59290143
