   70
C70 / DATE: 7/ 1/2024 / Origin: Program Fullerene / C70 from database
 C            1.54066884        0.08169018        4.85701412
 C            0.76097799       -1.14101480        4.76531918
 C            1.33223256       -1.95401439        3.70683243
 C            2.60531051       -0.00610192        3.87654501
 C            2.61772363       -1.36269916        3.36612047
 C            2.44478418        1.07991459        2.92049712
 C            0.67642472        1.17748392        4.46589280
 C            1.21894195        1.77507344        3.25974604
 C           -0.63297217       -0.76668730        4.66131572
 C           -0.68310458        0.67373661        4.42432341
 C           -1.47099130       -1.58718045        3.91911213
 C            0.49637663       -2.43192632        2.68987324
 C           -0.88376443       -2.43962849        2.88907381
 C            1.00699549       -2.59401528        1.39642918
 C            3.09919174       -1.54791937        2.08593791
 C            2.37149824       -2.43565428        1.20494507
 C            2.72943771        0.81953191        1.57968092
 C            3.38919093       -0.36676795        1.28872897
 C            1.96232687        1.42677353        0.57270640
 C            0.34115557        2.09617813        2.23953142
 C            0.80720950        2.13099097        0.92410824
 C           -1.53925388        1.16331510        3.44081281
 C           -1.03242517        2.04935475        2.48326656
 C           -2.67231306       -0.99967245        3.36214718
 C           -2.68923885        0.43291072        3.14550408
 C           -1.75974975       -2.41072336        1.73159137
 C           -2.92861566       -1.63285637        2.08038117
 C            0.15167229       -2.52274119        0.28540496
 C           -1.20024458       -2.24224034        0.47254503
 C            0.67142941       -2.50048419       -1.01654144
 C            2.85586523       -2.14379586       -0.12010183
 C            3.43788922       -0.81212911       -0.07956599
 C            2.06054145       -2.43375907       -1.21234536
 C            2.20334189        1.11514301       -0.77874225
 C            3.07639679        0.06097911       -1.09411817
 C            1.37332909        1.66213144       -1.77684978
 C           -0.00691621        2.67391589       -0.06429745
 C            0.34406261        2.54561017       -1.40977164
 C           -1.88655295        2.55802964        1.51653002
 C           -1.31573063        3.03220971        0.26608359
 C           -3.37425354        0.65928764        1.88737438
 C           -3.36395554       -0.60005560        1.16069617
 C           -3.09467750        1.81685516        1.18322882
 C           -1.89865121       -1.53455163       -0.51006441
 C           -2.87984045       -0.60774046       -0.14490194
 C           -0.18976894       -2.17202017       -2.07617599
 C           -1.38647980       -1.49966690       -1.80383808
 C            0.29132859       -2.21910115       -3.38339433
 C            2.52201354       -1.89784735       -2.40399568
 C            2.99442347       -0.52187515       -2.35027494
 C            1.70863499       -2.03946590       -3.58420430
 C            1.53880537        1.27515166       -3.12202898
 C            2.35475619        0.19139881       -3.42477707
 C            1.87857099       -0.82304753       -4.35317878
 C            0.65116318        1.71495928       -4.10459345
 C           -0.57359188        2.99278605       -2.36103847
 C           -0.44529275        2.57594411       -3.74018582
 C           -2.35730604        2.88386586       -0.72902670
 C           -3.16196653        1.77274125       -0.26428069
 C           -3.04001815        0.54344880       -0.91488797
 C           -1.98616214        2.88519517       -2.05564514
 C           -1.89957243       -0.56822973       -2.71503846
 C           -1.67741752        1.87244168       -4.08787616
 C           -2.60858073        0.54068448       -2.24032296
 C           -2.44341982        1.77929613       -2.86472264
 C           -0.37293574       -1.44804502       -4.41777321
 C            0.63164963       -0.59422930       -5.04710983
 C            0.10676313        0.75364993       -5.05206581
 C           -1.48958458       -0.60273727       -4.04708076
 C           -1.30773556        0.64794596       -4.75848326
