   70
C70 / DATE: 7/ 1/2024 / Origin: Program Fullerene / C70 from database
 C            1.51229660        0.10205315        4.66920439
 C            0.73583590       -1.11736016        4.53027078
 C            1.40710500       -1.96648161        3.56093398
 C            2.66216637       -0.01141039        3.79274808
 C            2.71204656       -1.37493124        3.30346739
 C            2.59740719        1.06067204        2.81446591
 C            0.69358366        1.19669036        4.18188851
 C            1.34858601        1.77306372        3.02696214
 C           -0.63731600       -0.73473769        4.27486339
 C           -0.65467319        0.69898809        4.01589292
 C           -1.40157754       -1.55413036        3.45655828
 C            0.66820467       -2.50478640        2.50171566
 C           -0.72578249       -2.49410767        2.56912830
 C            1.29726846       -2.75419241        1.27627656
 C            3.29487446       -1.58769623        2.06769128
 C            2.66863511       -2.53281515        1.16939607
 C            2.99920620        0.78599915        1.50893329
 C            3.62774602       -0.42960132        1.25062514
 C            2.37557794        1.44955570        0.45241961
 C            0.57647930        2.09749517        1.92023617
 C            1.18572155        2.15084420        0.67737867
 C           -1.41144093        1.16345596        2.94522180
 C           -0.81373220        1.99150253        1.98078783
 C           -2.48446177       -0.95313847        2.69963228
 C           -2.54286127        0.43333439        2.59279961
 C           -1.49604474       -2.57281663        1.33916804
 C           -2.67774990       -1.74797972        1.49794197
 C            0.53092323       -2.89038350        0.11011556
 C           -0.82365937       -2.56479223        0.12938872
 C            1.16059834       -3.05910288       -1.12068055
 C            3.24684984       -2.28137794       -0.13409158
 C            3.71917182       -0.90100553       -0.12099898
 C            2.57409017       -2.74121794       -1.25223704
 C            2.78259627        1.18718162       -0.85796607
 C            3.35639450       -0.05200122       -1.16391994
 C            2.29467592        1.99834652       -1.88025767
 C            0.47015530        2.65903804       -0.39865979
 C            1.14428173        2.84009412       -1.60022183
 C           -1.57294844        2.39978497        0.87769564
 C           -0.93382308        2.66211141       -0.34978818
 C           -3.38867830        0.96622178        1.63456873
 C           -2.93873162        2.13656451        0.91110424
 C           -3.23272598       -1.12138087        0.38830132
 C           -3.92073449        0.06558645        0.63106575
 C           -1.40944539       -1.95203119       -0.98164228
 C           -2.66402113       -1.34086598       -0.87476779
 C            0.48423356       -2.59239373       -2.31921028
 C           -0.71261915       -1.89765043       -2.19114526
 C            2.74544712       -2.01227647       -2.49335667
 C            3.14411097       -0.61891925       -2.41969645
 C            1.49020004       -2.06965712       -3.21930854
 C            2.12590074        1.44842648       -3.21674057
 C            2.37102679        0.09879942       -3.41345712
 C            1.26567371       -0.76595939       -3.81215447
 C            0.39189233        2.98151491       -2.82231977
 C            0.90969714        2.01186691       -3.77255292
 C           -1.68649708        2.82840117       -1.53086975
 C           -1.04113029        2.81238733       -2.76442254
 C           -3.71383197        2.18926085       -0.30831682
 C           -4.35542508        0.89013766       -0.47477820
 C           -3.03892267        2.50187728       -1.54350934
 C           -3.19924932       -0.70290103       -1.99607930
 C           -4.08530663        0.43172499       -1.81840442
 C           -3.50162787        1.54774928       -2.53582013
 C           -1.04235970       -0.92222339       -3.13521714
 C           -0.02594453       -0.24576018       -3.82367808
 C           -0.17794949        1.10996009       -4.10246422
 C           -1.40499807        1.78052879       -3.72657282
 C           -2.32905486       -0.39287524       -3.12043074
 C           -2.52533602        1.00974190       -3.46311072
