   70
C70 / DATE: 7/ 1/2024 / Origin: Program Fullerene / C70 from database
 C            1.20547751       -0.09317052        4.60709191
 C            2.42986994       -0.49762292        3.96872601
 C            2.20094993       -1.81093810        3.36911063
 C            0.34629953       -1.26009567        4.60358866
 C            0.79300379       -2.08808953        3.50059121
 C           -1.00400908       -0.76247139        4.56840074
 C            0.44146831        0.97517201        3.99394106
 C           -0.93668783        0.67147914        4.29515550
 C            0.78561447        1.40224581        2.70938081
 C            2.94526138        0.33048000        2.90506926
 C            2.11289754        1.27097172        2.28475845
 C            2.78162538       -1.76433504        2.04503981
 C            3.64679190       -0.60282533        2.05973171
 C            1.97449194       -1.96474740        0.92280827
 C            0.00010227       -2.16926280        2.35498609
 C            0.58669291       -2.10925261        1.07788191
 C           -1.90071105       -1.30669729        3.57632638
 C           -1.38561956       -2.02131586        2.48795201
 C           -1.94659849        0.94659542        3.29613235
 C           -2.80661690       -0.21970767        3.29538821
 C           -0.21493345        1.70742027        1.77408573
 C           -1.57322941        1.48253415        2.06423992
 C            0.14733375        2.13129528        0.49320006
 C            2.48142537        1.70758736        1.00958020
 C            1.49861523        2.16374660        0.11738056
 C            4.07540454       -0.12779086        0.84715679
 C            3.69110141        1.22573428        0.50606057
 C            2.49479078       -1.57296858       -0.31738246
 C            3.71717041       -0.89390061       -0.32325538
 C            1.65602629       -1.49971838       -1.43857318
 C           -0.23410561       -2.12841026       -0.05163963
 C            0.31447958       -1.89417746       -1.32450113
 C           -2.20100564       -2.14435418        1.36364353
 C           -1.61023018       -2.32308514        0.10613081
 C           -3.64907775       -0.38464725        2.22184572
 C           -3.48540012       -1.59702833        1.45082443
 C           -2.49800279        1.39514811        1.01634676
 C           -3.66676103        0.65991251        1.22151975
 C           -0.85324946        2.32585725       -0.46081643
 C           -2.09431456        1.71890992       -0.28025165
 C           -0.52464817        2.80937958       -1.71899991
 C            1.85498536        2.53130177       -1.19184322
 C            0.87053814        2.95490783       -2.07961224
 C            3.97612679        1.34417718       -0.90268626
 C            4.04238248       -0.01865933       -1.42376247
 C            3.04914680        2.06697544       -1.73822766
 C            2.12803942       -0.92467664       -2.63351946
 C            3.21222477       -0.05659209       -2.59722620
 C            3.00264280        1.32638384       -2.98386183
 C            1.27233223       -0.79201069       -3.71637824
 C           -0.50041376       -1.93562968       -2.46602723
 C           -0.08898227       -1.25727670       -3.60912662
 C           -2.41601267       -2.44742969       -1.02107783
 C           -1.87466729       -2.08956617       -2.31344809
 C           -4.26013951       -1.37696827        0.25090125
 C           -4.34636691        0.07162208        0.08723557
 C           -3.77023053       -1.92811165       -0.98821689
 C           -2.79564544        1.24198034       -1.40101879
 C           -2.73345174       -1.05384718       -2.87513122
 C           -3.87362334        0.38150440       -1.23934449
 C           -3.83924991       -0.86284804       -1.96906308
 C           -1.23551797        2.27548307       -2.86770169
 C           -0.95503556       -0.20752567       -4.12088513
 C           -2.16254584        1.26067103       -2.64444991
 C           -2.10136103        0.06818002       -3.39233824
 C            1.00083493        2.60709850       -3.48928659
 C            1.98047355        1.60405478       -3.87439773
 C            1.25236042        0.47774153       -4.43392660
 C           -0.29881852        2.17073344       -3.96891059
 C           -0.13171844        0.88047033       -4.59532454
