   70
C70 / DATE: 7/ 1/2024 / Origin: Program Fullerene / C70 from database
 C            1.32602516       -0.00892642        4.43627649
 C            2.60354057       -0.32408828        3.84913268
 C            2.59024386       -1.73701369        3.50781393
 C            0.48667481       -1.19811300        4.34575594
 C            1.20664000       -2.17745250        3.56345685
 C           -0.81465227       -0.75845907        3.88579221
 C            0.55581477        1.08053874        3.87497010
 C           -0.82355763        0.68254274        4.04953380
 C            0.93081654        1.65824638        2.65568259
 C            3.01071117        0.39250891        2.66062519
 C            2.12738157        1.27836519        2.03236912
 C            3.31986761       -1.88909654        2.25972624
 C            3.74979809       -0.55891224        1.85194619
 C            2.81870717       -2.76504845        1.30435900
 C            0.62361767       -2.69680407        2.41174561
 C            1.46122927       -3.26623496        1.45382350
 C           -1.34644790       -1.29592781        2.71410640
 C           -0.69313466       -2.35392267        2.06996247
 C           -2.34216859       -0.57398245        2.04290826
 C           -1.77928423        1.39888916        3.36421399
 C           -2.73324537        0.65620754        2.56676512
 C           -0.04731572        2.34682180        1.92656066
 C           -1.31766198        2.45961252        2.49299388
 C            0.13112229        2.56541921        0.55111027
 C            2.34461945        1.60237152        0.69239655
 C            1.38368303        2.32340522       -0.01952027
 C            3.91770128       -0.27614959        0.50720571
 C            3.37921604        0.97040598       -0.00073253
 C            3.02881162       -2.48677103       -0.10766477
 C            3.62844259       -1.29736948       -0.49120756
 C            0.95325400       -3.56093724        0.12849352
 C            1.86305654       -2.96167431       -0.83478918
 C           -1.26402505       -2.89618745        0.92217636
 C           -0.40960401       -3.48100741       -0.09892706
 C           -2.71181797       -0.93055170        0.73930220
 C           -2.32763246       -2.16870920        0.24960358
 C           -3.23024735        0.02216984       -0.14806821
 C           -3.34805045        1.63366769        1.69848634
 C           -2.44940716        2.78382807        1.65826289
 C           -3.62719000        1.27120522        0.32718038
 C           -0.93497655        3.00969957       -0.25660504
 C           -2.22241555        3.08918395        0.26749038
 C           -3.29914172        2.44453519       -0.45582948
 C           -0.80925446        3.00039493       -1.64922813
 C            1.58258763        2.55702093       -1.37920991
 C            0.44553909        2.86041938       -2.22686683
 C            3.27980176        0.81136646       -1.43565469
 C            3.14932105       -0.61390150       -1.68059082
 C            2.45677558        1.67277121       -2.13342720
 C            1.34067857       -2.21564752       -1.89097963
 C            2.02003015       -1.07866267       -2.35411431
 C           -0.87767885       -3.00714413       -1.38729464
 C           -2.15355487       -2.34218976       -1.17990948
 C            0.02487619       -2.45930243       -2.29678643
 C           -3.08718259       -0.14790264       -1.53295395
 C           -2.51000746       -1.31805932       -2.04938720
 C           -3.15039635        2.28566362       -1.81735973
 C           -1.94868199        2.81382300       -2.43522938
 C           -3.31526673        0.95355102       -2.36523502
 C           -1.83119219        2.14625584       -3.72069884
 C           -2.73001980        1.00003389       -3.69119064
 C            0.59769832        2.09045174       -3.45665735
 C            1.66920588        1.13882644       -3.22777130
 C            1.40294686       -0.23120832       -3.27590682
 C           -0.52823801        1.68279931       -4.15687745
 C           -0.49724842       -1.75801529       -3.37521628
 C           -1.87248835       -1.29692143       -3.29096555
 C           -2.00029160       -0.15055669       -4.16560980
 C            0.27949916       -0.68197980       -3.95672251
 C           -0.65645705        0.28182881       -4.51704044
