   70
C70 / DATE: 7/ 1/2024 / Origin: Program Fullerene / C70 from database
 C            1.48722208        0.05950093        4.90243406
 C            0.68977546       -1.14239948        4.71416838
 C            1.50179987       -2.09746129        3.99798992
 C            2.65962613       -0.05795009        4.05656990
 C            2.76124964       -1.44622214        3.66690733
 C            2.56622857        0.94815564        3.00759525
 C            0.70781321        1.17950944        4.41361940
 C            1.42040672        1.78752655        3.30489295
 C           -0.57751795       -0.74278541        4.13542155
 C           -0.63868101        0.70517642        4.15974860
 C           -1.07414319       -1.39377933        3.00715044
 C            0.97852697       -2.67635802        2.77332822
 C           -0.27170920       -2.30666577        2.30036781
 C            3.03357043       -1.73417115        2.27782602
 C            2.06996955       -2.72350446        1.82691654
 C            2.80487238        0.58121822        1.68344469
 C            3.32827934       -0.69027008        1.40961864
 C            2.19782536        1.31814974        0.65448168
 C            0.65541245        2.27311905        2.25305060
 C            1.14846755        2.19582875        0.94812480
 C           -1.35242883        1.32428980        3.14465016
 C           -0.72245125        2.34881195        2.43739450
 C           -2.14914955       -0.79623999        2.34622789
 C           -2.33630341        0.58409255        2.48996910
 C           -2.70802510       -1.46709605        1.26311336
 C           -0.57463402       -2.59489122        0.97124614
 C           -1.88300679       -2.42588496        0.55415374
 C            1.79109279       -2.75747294        0.46103267
 C            0.45645514       -2.70386771        0.02449284
 C            3.49500778       -1.05659947        0.08674804
 C            2.77641268       -2.23752906       -0.36674218
 C            2.52466071        1.04344846       -0.67526418
 C            3.32852658       -0.05811861       -0.94320209
 C            1.77430572        1.60491767       -1.71345841
 C            0.38097910        2.73477168       -0.08888148
 C            0.69372777        2.44060208       -1.41847947
 C           -1.46409507        3.05025795        1.50142234
 C           -0.84835803        3.32826952        0.21657988
 C           -3.19519024        1.26859784        1.63431854
 C           -2.82761883        2.61852719        1.24965836
 C           -3.50225380       -0.74598303        0.28324166
 C           -3.73153719        0.60554966        0.45770863
 C           -2.17565927       -2.31562467       -0.85584718
 C           -3.14009193       -1.24079895       -1.03192603
 C            0.17642499       -2.53514269       -1.34857043
 C           -1.15722807       -2.44904563       -1.78791458
 C            2.49941417       -2.05617653       -1.76984994
 C            3.12115943       -0.80153621       -2.16728556
 C            1.23650765       -2.35999736       -2.25907768
 C            1.97064147        1.15723533       -3.02673711
 C            2.59716985       -0.13465293       -3.25763967
 C            0.91026443        1.30756067       -4.01088526
 C           -0.21648967        2.77338387       -2.42269975
 C           -0.22435104        2.02184931       -3.66243936
 C           -1.90968791        3.35458808       -0.77744352
 C           -3.09115052        2.77271937       -0.16836183
 C           -3.58023327        1.50217833       -0.67660656
 C           -1.60475464        2.99299693       -2.07582584
 C           -2.97373316       -0.35944050       -2.09947785
 C           -1.54504030        1.40798038       -3.78581433
 C           -3.06801800        1.02272999       -1.88205914
 C           -2.35513249        1.90987872       -2.69241480
 C           -1.44027040       -1.99881874       -3.07279800
 C           -2.31265792       -0.84444169       -3.22752883
 C           -1.66321996        0.07427149       -4.14495792
 C            0.98157658       -2.00134258       -3.58075826
 C            1.72453055       -0.88472448       -4.14195750
 C            0.76897242        0.04410869       -4.71382948
 C           -0.38028660       -1.89180236       -4.04368152
 C           -0.52376687       -0.61300668       -4.72519887
