   70
C70 / DATE: 7/ 1/2024 / Origin: Program Fullerene / C70 from database
 C            1.15478598       -0.04871183        4.33717128
 C            2.47235388       -0.38166742        3.84676857
 C            2.47135512       -1.79058848        3.49003155
 C            0.34250743       -1.25442782        4.26813640
 C            1.09675504       -2.25578371        3.55031836
 C           -0.94896789       -0.87411023        3.75426910
 C            0.41315013        1.01175957        3.67710182
 C           -0.96315680        0.57399164        3.61761273
 C            0.95266514        1.65191480        2.56708628
 C            2.98686105        0.35209331        2.71253819
 C            2.30068626        1.45973709        2.22493913
 C            3.19680980       -1.93893045        2.23837688
 C            3.50931776       -0.60490066        1.75097792
 C            2.75004003       -2.88665693        1.33485731
 C            0.55020614       -2.85533688        2.41719284
 C            1.44121487       -3.48491470        1.55152914
 C           -1.53384721       -1.63000953        2.74481148
 C           -0.71790425       -2.45499979        1.94885803
 C           -2.70581650       -1.10756576        2.20601946
 C           -1.81175385        1.11372330        2.66056111
 C           -2.90521293        0.32855936        2.31346292
 C            0.08420029        2.27528428        1.66343736
 C           -1.29937471        2.01860487        1.71577473
 C            0.61598362        3.08550134        0.65831677
 C            2.76103146        1.97292547        1.02207341
 C            1.94626475        2.91716196        0.29266486
 C            3.39529037       -0.30019944        0.39197926
 C            3.33027199        1.04476830        0.05437169
 C            2.83587069       -2.58938947       -0.08084773
 C            2.88493647       -1.25750630       -0.49480567
 C            0.97777450       -3.96468649        0.27151700
 C            1.92553606       -3.50204284       -0.73202958
 C           -1.11544682       -2.76039395        0.63376625
 C           -0.34295920       -3.58073059       -0.16910678
 C           -3.10671482       -1.48350243        0.86685993
 C           -2.16107490       -2.06359796        0.04062359
 C           -3.75178968        0.73716907        1.21980487
 C           -3.93594296       -0.41743682        0.35443979
 C           -2.14422540        2.51740118        0.71027962
 C           -3.31815620        1.84059282        0.39439667
 C           -0.23304785        3.73325638       -0.22814232
 C           -1.63600552        3.37798618       -0.25318188
 C            0.20206617        3.91782867       -1.60369928
 C            2.28439306        2.76064697       -1.11202071
 C            2.85308426        1.43256453       -1.25441903
 C            1.38174112        3.20477500       -2.06159853
 C            2.22020742       -0.85952766       -1.67474630
 C            2.20249266        0.49555458       -2.04696333
 C            1.16280977       -3.01588445       -1.85189353
 C           -0.24385650       -3.26209897       -1.57724338
 C            1.50460721       -1.80303425       -2.43348512
 C           -2.11934027       -1.75950106       -1.33282495
 C           -1.16808265       -2.39409705       -2.15323682
 C           -3.72923218        0.01953885       -1.00631018
 C           -3.55579715        1.46391904       -0.98798537
 C           -2.93008437       -0.73156650       -1.85669014
 C           -2.02602133        3.18162858       -1.64447032
 C           -0.90309121        3.56632272       -2.47796448
 C           -2.79112458        2.06528526       -1.98555976
 C            0.95965637        2.28723494       -3.10604710
 C            1.35305213        0.94586787       -3.06315841
 C           -0.41253291        2.62508865       -3.46237631
 C            0.63899578       -1.36028532       -3.42329674
 C           -0.75480426       -1.76432174       -3.32292165
 C            0.66313972        0.02418727       -3.83582872
 C           -2.59985940       -0.13588514       -3.06807508
 C           -2.46112394        1.31285187       -3.11855758
 C           -1.26000683        1.61607431       -3.89093397
 C           -1.56381310       -0.71339403       -3.88866867
 C           -0.67194628        0.35588664       -4.30383688
