   70
C70 / DATE: 7/ 1/2024 / Origin: Program Fullerene / C70 from database
 C            1.01129369       -0.04343391        4.67242400
 C            2.27718728       -0.35377816        4.04475882
 C            2.23258851       -1.74509944        3.63630173
 C            0.18121644       -1.23793138        4.60769706
 C            0.85168309       -2.18071027        3.73739536
 C           -1.15978693       -0.82292413        4.27358866
 C            0.22649371        1.05543824        4.14575995
 C           -1.15639184        0.62724365        4.14729084
 C            0.68169026        1.77594409        3.04568012
 C            2.68613893        0.41876493        2.89017767
 C            1.94067781        1.51514335        2.48403309
 C            2.88876578       -1.84996820        2.34656231
 C            3.14747681       -0.49973998        1.86697110
 C            2.39420079       -2.77609844        1.44925052
 C            0.22117101       -2.66026659        2.58631879
 C            1.02860524       -3.25856246        1.62524257
 C           -1.77153686       -1.35325688        3.07325041
 C           -1.05029936       -2.19007007        2.21731813
 C           -1.98278788        0.96880252        3.00029735
 C           -2.54165227       -0.27082731        2.49425029
 C           -0.25667606        2.47627998        2.28379962
 C           -1.51716200        1.90785233        2.07968340
 C            0.21911026        3.39720745        1.36149220
 C            2.20526548        2.02876210        1.22252038
 C            1.58246210        3.22375178        0.90208153
 C            2.90723316       -0.17798946        0.52559027
 C            2.55424933        1.13429574        0.19760900
 C            2.55651427       -2.51585584        0.03753120
 C            2.69654280       -1.19961826       -0.40674053
 C            0.49762218       -3.53191286        0.30453224
 C            1.60382825       -3.38067184       -0.62400137
 C           -1.49613414       -2.31283386        0.89216808
 C           -0.74966182       -3.03137561       -0.05073179
 C           -2.84406561       -0.34102422        1.14824002
 C           -2.57327693       -1.52659467        0.47268709
 C           -2.06823748        1.90277083        0.79161966
 C           -2.89826954        0.84340615        0.42005004
 C           -0.58098366        3.68876421        0.18927716
 C           -1.58047049        2.78894629       -0.17710844
 C            1.66307290        3.71761056       -0.45159869
 C            0.33799742        4.19632912       -0.81086108
 C            2.29947824        1.46202538       -1.13843987
 C            2.08432626        2.79596162       -1.48268333
 C            2.29985468       -0.88832520       -1.71241540
 C            2.02146436        0.44295438       -2.06148123
 C            1.31434290       -3.12246834       -1.94660511
 C            1.89103313       -1.93323118       -2.54511417
 C           -1.07446298       -2.95300758       -1.41010617
 C           -0.07416863       -3.15018433       -2.36341908
 C           -3.07562773       -1.67438064       -0.81256486
 C           -2.28407564       -2.38188667       -1.79852915
 C           -3.41792388        0.79616438       -0.86430514
 C           -3.65587630       -0.50863441       -1.45853368
 C           -1.91586683        2.61748160       -1.53021895
 C           -2.85147595        1.65373134       -1.88583256
 C            0.11801555        3.84471698       -2.19285186
 C            1.28507328        3.10146312       -2.64578515
 C           -1.04813348        3.05438929       -2.52909873
 C            1.35392935        0.74063493       -3.26683348
 C            0.81080952        2.00188446       -3.44985988
 C           -0.63595519        2.11152288       -3.55254511
 C            1.09643962       -1.64523262       -3.71710113
 C           -0.13118667       -2.42165955       -3.61696015
 C            0.73299078       -0.27617105       -3.97415999
 C           -2.37464247       -1.64822860       -3.05693928
 C           -3.18642942       -0.47126596       -2.83155834
 C           -2.60591072        0.83806868       -3.06939972
 C           -1.38185427        0.94683019       -3.73267194
 C           -1.24990847       -1.53136756       -3.85762695
 C           -0.70995370       -0.20855503       -4.14876832
