   70
C70 / DATE: 7/ 1/2024 / Origin: Program Fullerene / C70 from database
 C            1.30852067        0.10950609        4.47638400
 C            2.54163330       -0.25627430        3.81736233
 C            2.55320601       -1.70157056        3.68621963
 C            0.46059059       -1.07169763        4.53655397
 C            1.23320599       -2.19787736        4.05268360
 C           -0.79383154       -0.74589164        3.87616988
 C            0.51982303        1.16998567        3.89227406
 C           -0.84824708        0.69756963        3.77616000
 C            1.03470138        1.90579668        2.83102719
 C            2.82367895        0.31471550        2.50963055
 C            1.99115101        1.30900987        1.99726578
 C            3.08933322       -2.01913329        2.37334204
 C            3.24282158       -0.76904915        1.63980357
 C            2.60153525       -3.13362181        1.70528462
 C            0.61165961       -3.12130879        3.22316237
 C            1.40981243       -3.79375011        2.21505399
 C           -1.21203896       -1.51060788        2.79248831
 C           -0.67051019       -2.78261072        2.61244784
 C           -1.87684858       -0.88093684        1.73519007
 C           -1.63620345        1.28024977        2.79214914
 C           -2.28888783        0.44938147        1.87759335
 C            0.16744622        2.83472455        2.27847928
 C           -1.25575647        2.55239309        2.37475520
 C            0.40424011        3.31029985        0.93525595
 C            1.89139806        1.45942972        0.60752652
 C            1.19032978        2.54485531        0.07997885
 C            2.90498936       -0.72377817        0.29058076
 C            2.35474862        0.45026536       -0.24214756
 C            2.49018079       -3.09026658        0.25973923
 C            2.81311522       -1.92109607       -0.42469443
 C            0.54152125       -4.08531819        1.08887911
 C           -0.71221275       -3.39391545        1.29692272
 C            1.27591780       -3.79460809       -0.12394390
 C           -1.97840350       -1.51880353        0.49047824
 C           -1.23732534       -2.67262787        0.23582490
 C           -2.67641392       -0.91560662       -0.55796601
 C           -3.06962028        1.03064645        0.88223482
 C           -3.28336139        0.31791927       -0.36297934
 C           -1.90396894        3.15696433        1.22628269
 C           -0.86503145        3.82771391        0.45849581
 C           -2.89029689        2.43961815        0.56405457
 C           -1.02583918        3.99330406       -0.90540433
 C            0.98866447        2.65259397       -1.29902399
 C            0.07303288        3.60320910       -1.76486538
 C            2.15027438        0.55249144       -1.61903130
 C            1.47473019        1.65378244       -2.15262842
 C            2.46443183       -1.86911023       -1.76658367
 C            2.32367772       -0.58072563       -2.40872660
 C            0.57957507       -3.31136437       -1.22586483
 C           -0.74958273       -2.90475849       -1.05206882
 C            1.34215207       -2.68321681       -2.20364467
 C           -2.46574254       -1.35622922       -1.86144443
 C           -1.43628050       -2.34744071       -2.12534050
 C           -2.44985604       -0.38917612       -2.94913798
 C           -3.29081062        1.28996880       -1.44782248
 C           -3.05002380        2.60540366       -0.87110614
 C           -2.24117790        3.51162641       -1.54533320
 C           -2.73170775        0.95013316       -2.68041045
 C           -0.48572097        3.49515725       -3.09519701
 C           -1.91313829        3.25602711       -2.93585088
 C           -2.19364917        1.94638673       -3.49618285
 C            1.08075021        1.61010727       -3.49475566
 C            0.03232957        2.48172856       -3.97997997
 C           -1.07960595        1.62805386       -4.37162551
 C            1.46231871       -0.78478008       -3.55907743
 C            0.68529943       -1.98593834       -3.29328900
 C           -0.70085536       -1.92201036       -3.30568059
 C           -1.35588520       -0.74182250       -3.84471431
 C            0.83990375        0.32118963       -4.11103672
 C           -0.58386595        0.26471535       -4.41017660
