   70
C70 / DATE: 7/ 1/2024 / Origin: Program Fullerene / C70 from database
 C            1.33945175       -0.12098600        4.28219996
 C            2.60162728       -0.39869332        3.63976818
 C            2.53226703       -1.73749008        3.07278492
 C            0.49017315       -1.29294743        4.12707041
 C            1.17722266       -2.22499625        3.25319539
 C           -0.83202109       -0.82773376        3.74264495
 C            0.57207336        1.02630922        3.84243832
 C           -0.81975430        0.61982706        3.85332441
 C            1.03100798        1.82674490        2.79439230
 C            3.05625183        0.48741615        2.58885580
 C            2.27599331        1.57376030        2.18980678
 C            3.07212873       -1.67037864        1.72434608
 C            3.65501380       -0.35070968        1.56831529
 C            2.33149782       -2.21620928        0.67843793
 C            0.49803471       -2.72457066        2.14900824
 C            1.21638618       -2.99605108        0.98324609
 C           -1.46382528       -1.42130802        2.65103096
 C           -0.88496906       -2.54898556        2.07038070
 C           -2.43876748       -0.70621730        1.94621778
 C           -1.72329279        1.34716031        3.10036528
 C           -2.66599974        0.63412168        2.25674248
 C            0.12552057        2.70408641        2.18756473
 C           -1.24464436        2.48847730        2.33710853
 C            0.54948014        3.51777606        1.14341720
 C            2.60535542        2.21107749        0.99223479
 C            1.87260701        3.31911440        0.58900928
 C            3.79051025        0.16885462        0.29338922
 C            3.41575592        1.55240521        0.06418041
 C            2.47516221       -1.70286484       -0.61553257
 C            3.29115407       -0.59814849       -0.83680583
 C            1.58565570       -2.09841810       -1.61544848
 C            0.58327205       -3.68160217       -0.04424779
 C            0.81056163       -3.23827997       -1.40714094
 C           -1.58635302       -3.22848784        1.08534780
 C           -0.83113744       -3.97174928        0.09494496
 C           -3.00294233       -1.24868062        0.78642702
 C           -2.66653889       -2.54205808        0.39997867
 C           -3.60696911       -0.41022030       -0.14975150
 C           -3.07647069        1.55006451        1.20877745
 C           -2.11160438        2.63580391        1.17776465
 C           -3.54464733        1.03256026        0.01637083
 C           -0.36172040        3.76585680        0.03511593
 C           -1.55005505        3.04599466       -0.02945265
 C            1.81568153        3.66081730       -0.82255530
 C            0.42906945        3.94103960       -1.15898956
 C            3.14171895        1.68217804       -1.35770558
 C            2.92745899        0.34304792       -1.88193811
 C            2.33357714        2.71691610       -1.79678689
 C            1.26150071       -1.21183116       -2.65010786
 C            1.80837860        0.07840845       -2.66665296
 C            0.24601218       -1.54168707       -3.54291526
 C           -0.42571545       -3.42686430       -2.15070056
 C           -1.46132523       -3.77384847       -1.19715545
 C           -2.57593590       -2.86095589       -1.01849076
 C           -0.73865331       -2.53562158       -3.16247563
 C           -3.45212640       -0.69624087       -1.56758078
 C           -2.78272219       -1.85554563       -1.95999695
 C           -2.03043956       -1.86272149       -3.13640558
 C           -3.06432821        1.59753538       -1.23128280
 C           -1.94000032        2.42479887       -1.22836887
 C           -3.20546554        0.57026172       -2.24702665
 C            0.08568329        3.16396617       -2.32577288
 C            1.27021019        2.43070415       -2.74250374
 C            1.09923550        1.14299716       -3.24413272
 C           -1.14279287        2.51311874       -2.38291498
 C           -0.47079936       -0.47424122       -4.20387394
 C           -1.88633539       -0.64133558       -3.90834152
 C           -2.38013861        0.60587484       -3.35652716
 C           -0.10770741        0.88843798       -3.88637002
 C           -1.29649260        1.57116633       -3.40025146
