   70
C70 / DATE: 7/ 1/2024 / Origin: Program Fullerene / C70 from database
 C            1.19706686       -0.01350033        4.96268352
 C            2.49289915       -0.34257968        4.41206386
 C            2.34700580       -1.60459979        3.69336491
 C            0.35639896       -1.18355033        4.78487548
 C            0.94197335       -1.95292718        3.70648059
 C           -0.99314996       -0.70188719        4.62424535
 C            0.46288496        1.10648753        4.39743111
 C           -0.93122037        0.75251465        4.52123610
 C            0.91501333        1.70055340        3.21669576
 C            3.10259744        0.60420200        3.50220285
 C            2.27378409        1.64160436        2.90637014
 C            3.00558017       -1.45663743        2.41394239
 C            3.66128057       -0.16640987        2.41121625
 C            2.33944774       -1.83138911        1.25367652
 C            0.26425672       -2.06162239        2.48952019
 C            0.99581850       -2.21286487        1.30668965
 C           -1.75440674       -1.15365926        3.47996722
 C           -1.11360722       -1.81321914        2.42553061
 C           -1.84090721        1.13461884        3.46347876
 C           -2.62567639       -0.04494113        3.16208950
 C            0.00431980        2.08868261        2.22232777
 C           -1.37749074        1.89728896        2.39586562
 C            0.49038537        2.55186168        0.99280551
 C            2.69464761        1.77613609        1.52164938
 C            3.53718212        0.63551927        1.21191006
 C            1.76411018        2.17842207        0.56650774
 C            2.82171937       -1.33105229        0.05015951
 C            3.28706994       -0.01186263        0.01555531
 C            2.32287876       -1.87133596       -1.13062740
 C            0.32262861       -2.40801377        0.10070984
 C            1.06503397       -2.48644837       -1.08064396
 C           -1.76337085       -1.84722150        1.18741086
 C           -1.05624425       -2.18610279        0.03215097
 C           -3.28058504       -0.08100389        1.94956626
 C           -2.98145816       -1.18438604        1.05697907
 C           -2.22838056        2.03732738        1.29781719
 C           -3.25534209        1.11222583        1.12208122
 C           -0.39636534        3.06847309        0.05938460
 C           -1.81223395        2.79385539        0.21176672
 C           -0.07133528        2.95471536       -1.35140289
 C            1.95905398        1.79805380       -0.77152939
 C            2.87770084        0.77923033       -1.04580264
 C            1.01454514        2.17284181       -1.73707178
 C            2.74148871       -1.26167027       -2.31026640
 C            2.88667251        0.17823653       -2.29188311
 C            2.14040318       -1.63154376       -3.57186939
 C            0.40447575       -2.83502770       -2.25709758
 C            0.98801562       -2.50087745       -3.54487171
 C           -1.69195599       -2.12153776       -1.21695710
 C           -1.02483045       -2.60014544       -2.34238168
 C           -3.42175310       -0.76892107       -0.25732893
 C           -3.60125268        0.67624457       -0.21777074
 C           -2.83017247       -1.32480760       -1.38021604
 C           -2.36229001        2.52936591       -1.11251446
 C           -1.32239022        2.85732558       -2.08019682
 C           -3.19393705        1.42397520       -1.31661594
 C           -1.32918667        2.24805867       -3.32421444
 C            1.03159026        1.59224658       -3.01120420
 C            2.04694519        0.70451461       -3.34287747
 C            1.76279241       -0.39882979       -4.24728699
 C           -0.10023096        1.65636545       -3.82733276
 C           -0.04543708       -1.88789335       -4.36026517
 C           -1.30677551       -2.02288174       -3.65008080
 C            0.41333680       -0.56115294       -4.75076883
 C           -0.46541955        0.50958802       -4.65148024
 C           -3.03272862       -0.65849530       -2.58476369
 C           -3.19469701        0.78745385       -2.55511285
 C           -2.41407889        1.34212125       -3.64281554
 C           -2.24369179       -1.00478823       -3.75061300
 C           -1.87040161        0.23567667       -4.41254445
