   70
C70 / DATE: 7/ 1/2024 / Origin: Program Fullerene / C70 from database
 C            1.54134538       -0.13046898        4.31173547
 C            2.65850279       -0.34204300        3.40313625
 C            2.36940871       -1.54813104        2.64849484
 C            0.67886235       -1.29127908        4.22366266
 C            1.35779874       -2.27246010        3.39906635
 C           -0.64100804       -0.84559968        3.80413720
 C            0.71183586        1.04883386        4.13764454
 C           -0.58401505        0.59747755        3.65491269
 C            1.28603933        2.17151620        3.56294344
 C            3.17577920        0.75358292        2.73510371
 C            2.64822954        2.06779173        3.06302089
 C            3.30979097        0.69007749        1.28863200
 C            2.27945560       -1.49295803        1.25231485
 C            2.70044062       -0.34573447        0.57742424
 C            1.54369866       -2.47230093        0.57835160
 C            0.56724060       -3.16751868        2.70858065
 C            0.91896964       -3.46404030        1.33741106
 C           -1.31305575       -1.61316043        2.85328223
 C           -0.86412087       -2.91951310        2.67966399
 C           -1.99170915       -0.97266196        1.80155257
 C           -1.13313132        1.17194930        2.51796391
 C           -2.02381536        0.42623142        1.75178092
 C            0.52569592        2.92957395        2.58316429
 C           -0.63318602        2.38458692        2.02953968
 C            2.74656853        2.89020527        1.87432724
 C            3.21100852        2.04798124        0.78481259
 C            1.48375867        3.58709841        1.71138930
 C            2.66473365        2.24850082       -0.47297302
 C            2.29050789       -0.11950901       -0.73857981
 C            2.47871817        1.14731113       -1.30544788
 C            1.16390645       -2.27053175       -0.75895645
 C            1.57363521       -1.10658444       -1.42905121
 C            0.26528007       -3.16069048       -1.37379733
 C           -0.23622756       -4.14540374        0.80318616
 C           -1.38423235       -3.70902295        1.59039128
 C           -0.57357998       -3.93448563       -0.57988714
 C           -2.55425366       -1.72390022        0.75181021
 C           -2.31346763       -3.09367885        0.67041831
 C           -2.00013817       -3.66458673       -0.62126242
 C           -3.08163201       -1.07702264       -0.37274870
 C           -2.74144231        1.06801285        0.75558671
 C           -3.25601988        0.29956220       -0.35804610
 C           -1.12132765        2.90342482        0.82655574
 C           -2.24565717        2.33132303        0.24213289
 C            1.08976598        3.90185871        0.42184182
 C            1.87995050        3.38208940       -0.67967494
 C           -0.30068265        3.71312488        0.04525329
 C            1.04576841        3.45191881       -1.86288930
 C           -0.33453557        3.57591925       -1.40450786
 C            2.08280541        1.38138802       -2.61494930
 C            1.32521809        2.59042804       -2.90944179
 C            1.26021105       -0.92517724       -2.78270135
 C            1.51767925        0.29924958       -3.39143921
 C           -0.18566618       -2.90099504       -2.66097875
 C            0.33004846       -1.76364660       -3.38869576
 C           -2.49883883       -3.04400596       -1.75122564
 C           -3.12437583       -1.73728583       -1.60247065
 C           -1.61906568       -2.96123959       -2.90167217
 C           -0.77510722       -1.17861490       -4.14258626
 C           -2.87055239       -0.98233667       -2.82282713
 C           -1.99345111       -1.78360264       -3.65590386
 C           -3.02419518        1.06062189       -1.57770486
 C           -2.36608149        2.30440480       -1.20908991
 C           -1.33425815        2.80379643       -1.99888034
 C           -2.65170088        0.39207351       -2.74118359
 C            0.23761624        2.22028255       -3.78773511
 C            0.49751257        0.87300014       -4.25122973
 C           -0.77435635        0.18976096       -4.34376001
 C           -1.11511567        2.25497676       -3.26124109
 C           -1.75778396        1.00025589       -3.62768690
