   70
C70 / DATE: 7/ 1/2024 / Origin: Program Fullerene / C70 from database
 C            1.27625980       -0.24150892        5.34225714
 C            0.42210007       -1.40218420        5.17884771
 C            1.09515175       -2.33097723        4.28586010
 C            2.48043952       -0.46196980        4.55913762
 C            2.38480008       -1.76658898        3.93476795
 C            2.66934935        0.69934454        3.71065641
 C            0.58594742        0.90243203        4.76850366
 C            1.50502426        1.56175771        3.87292315
 C           -0.79052308       -0.96460167        4.51199967
 C           -0.67203403        0.45154797        4.21850557
 C            0.16823551       -2.66967702        3.21756163
 C           -1.02424540       -1.86237837        3.40045896
 C            0.65138180       -2.83495374        1.91830680
 C            2.82794763       -1.90594695        2.62815890
 C            2.01106275       -2.64240354        1.67484252
 C            3.19623489        0.53686243        2.42831598
 C            3.37685755       -0.75243857        1.92167638
 C            3.03217327        1.59163884        1.53538721
 C            1.00454110        2.18463496        2.73752719
 C            1.94311326        2.52114466        1.77868683
 C           -1.03180408        0.88331245        2.94352734
 C           -0.30923280        1.90781626        2.31914446
 C           -1.61363623       -1.34828277        2.25934396
 C           -1.79393347        0.03112068        2.15033894
 C           -0.24500352       -2.70004896        0.85117093
 C           -1.46566168       -2.06927335        1.08328131
 C            0.24156431       -2.73957068       -0.45675501
 C            2.43758856       -2.22734380        0.35316516
 C            3.20824952       -1.00417626        0.49433874
 C            1.54613946       -2.30730897       -0.69889329
 C            3.07725053        1.34958659        0.10052276
 C            2.95731030        0.05564737       -0.37897719
 C            1.49205232        3.01581017        0.50585049
 C            2.31361956        2.40573973       -0.52603185
 C           -0.73846057        2.35266443        1.05575924
 C            0.13013786        3.12400083        0.27256990
 C           -2.30613100        0.51332217        0.95475588
 C           -1.84699891        1.73297361        0.45320658
 C           -2.22455987       -1.66696019       -0.00582804
 C           -2.83116737       -0.41420707        0.06595838
 C           -0.66795453       -2.69292292       -1.51772155
 C           -1.96208970       -2.22784989       -1.25359333
 C           -0.13406100       -2.55372106       -2.79966860
 C            1.77234697       -1.48131239       -1.78922270
 C            2.22401492       -0.18176796       -1.55031628
 C            1.07063326       -1.76349044       -2.94499603
 C            1.72139973        2.19295803       -1.76127694
 C            1.68296478        0.89083355       -2.28524119
 C           -0.23254102        3.44240404       -1.02809502
 C            0.69735389        3.07417548       -2.08347730
 C           -2.29645509        2.15911080       -0.80612846
 C           -1.55696499        3.10895600       -1.50093447
 C           -3.54866873        0.05788916       -1.01762965
 C           -3.24211839        1.39153211       -1.49783209
 C           -2.85098516       -1.95937692       -2.29521845
 C           -3.72878585       -0.81183506       -2.16443259
 C           -0.99327846       -2.24528341       -3.92388260
 C           -2.39309030       -1.99606328       -3.67105550
 C            0.76988841       -0.68989900       -3.86577347
 C            0.92831720        0.62569277       -3.44225792
 C           -0.43775822       -1.07317334       -4.58522831
 C           -0.06182458        2.86541025       -3.28943525
 C           -1.46710770        3.02946975       -2.95032130
 C            0.07963123        1.60078712       -3.97086167
 C           -3.21820094        1.33723527       -2.95574406
 C           -3.59500423       -0.00408222       -3.36418091
 C           -2.73829763       -0.72470372       -4.28832897
 C           -1.50553831       -0.10219344       -4.74426889
 C           -2.20832641        1.99506575       -3.64297726
 C           -1.24863954        1.22759858       -4.43072929
