   70
C70 / DATE: 7/ 1/2024 / Origin: Program Fullerene / C70 from database
 C            1.62906503        0.07178401        4.59514756
 C            0.80028489       -1.11748096        4.61985094
 C            1.36174461       -2.07344413        3.68441108
 C            2.61730670       -0.09478613        3.54083938
 C            2.45108357       -1.41023497        2.97665525
 C            2.51293545        1.03712835        2.65261524
 C            0.77775982        1.18597063        4.22257283
 C            1.42423257        1.86962344        3.12977681
 C           -0.57696337       -0.70592791        4.43298481
 C           -0.56085495        0.68297597        3.99821834
 C           -1.43087302       -1.58739728        3.79570366
 C            0.49452042       -2.89219718        2.96243227
 C           -0.87925129       -2.80264022        3.20890140
 C            0.95115969       -3.42060977        1.75460667
 C            2.54734686       -1.57783750        1.60004213
 C            2.07522885       -2.77652915        1.09336665
 C            2.61625384        0.84279201        1.27413840
 C            2.63935869       -0.46014182        0.74800824
 C            2.18533704        1.88825619        0.45568430
 C            0.63723237        2.45955418        2.16066795
 C            1.28452301        2.81522720        0.99507898
 C           -1.21779460        1.05069382        2.82066069
 C           -0.71740937        2.11421327        2.06008295
 C           -2.38299505       -1.06002315        2.83864902
 C           -2.13948563        0.17655327        2.24232857
 C           -1.82888126       -3.24721786        2.20278539
 C           -2.78838399       -2.17246410        2.00585611
 C            0.01472478       -3.84833533        0.72241384
 C           -1.34273939       -3.65321133        0.89825690
 C            1.90409038       -2.92827306       -0.32841890
 C            0.60545355       -3.53615432       -0.56384093
 C            2.54975918       -0.63458110       -0.64568996
 C            2.30384381       -1.91242921       -1.17924426
 C            2.30679641        1.76099209       -0.92710594
 C            2.50611992        0.49550664       -1.48179766
 C            1.92887433        2.82702276       -1.74558228
 C            0.59961711        3.67310240        0.15953361
 C            1.07351283        3.85309842       -1.19126038
 C           -1.41964276        2.53134205        0.92006059
 C           -0.84257761        3.53221152        0.12916870
 C           -2.58176436        0.41553030        0.93828908
 C           -2.38303973        1.67793745        0.36813738
 C           -2.91423398       -1.95012303        0.58465246
 C           -2.08573326       -2.91489301       -0.11185009
 C           -2.92609768       -0.65569698        0.10214910
 C           -0.18088319       -3.02287671       -1.59307590
 C           -1.45126277       -2.51522605       -1.29345957
 C            1.85414448       -2.02812212       -2.48708015
 C            0.50095739       -2.52136044       -2.69565741
 C            2.42878916        0.34226289       -2.86773359
 C            2.08646884       -0.94878986       -3.41223507
 C            1.46813386        2.57200958       -3.09860516
 C            1.71587066        1.32999214       -3.65939415
 C           -0.08803805        3.98579649       -2.05178304
 C           -1.27306325        3.73540792       -1.24287506
 C            0.15283566        3.18352638       -3.23985441
 C           -2.85930595        1.89982067       -0.92801038
 C           -2.29078779        2.94999673       -1.75491392
 C           -2.78174822       -0.49607229       -1.26368517
 C           -1.91105255       -1.35854917       -1.94708982
 C           -3.08988067        0.74864206       -1.78008170
 C           -0.16152632       -1.58997300       -3.58305894
 C            0.87851384       -0.78695537       -4.20492500
 C            0.65277638        0.63606650       -4.37389023
 C           -1.33146400       -0.96965994       -3.16354876
 C           -0.89478846        2.45266226       -3.78784936
 C           -2.18481351        2.44328562       -3.11574465
 C           -2.68053159        1.07791080       -3.12358151
 C           -0.64994287        1.11146514       -4.29240634
 C           -1.68884550        0.23985326       -3.75939755
