   70
C70 / DATE: 7/ 1/2024 / Origin: Program Fullerene / C70 from database
 C            1.18659732        0.00249677        4.34614335
 C            2.32777653       -0.15684894        3.46534339
 C            2.40055479       -1.56966492        3.15434894
 C            0.33242775       -1.15882520        4.15181059
 C            1.04881014       -2.08675672        3.30823471
 C           -0.95497317       -0.68600110        3.70773451
 C            0.36879910        1.19042247        4.20486808
 C           -0.98545261        0.75864865        3.87910920
 C            0.90581491        2.27690949        3.53422103
 C            2.52886772        0.77455130        2.44743835
 C            2.00126790        2.05427655        2.59546534
 C            2.89799243        0.32616500        1.17498609
 C            3.11883171       -1.96223597        2.03972782
 C            3.44388902       -0.94878678        1.04547482
 C            2.63553489       -3.12215453        1.31857781
 C            0.41315336       -2.64116748        2.19792192
 C            1.20608265       -3.38665870        1.33283663
 C           -1.53694718       -1.23485798        2.57140812
 C           -0.78794564       -2.07858376        1.73176257
 C           -2.64307158       -0.57192982        2.06547847
 C           -1.77918838        1.52017055        3.01698521
 C           -2.74780365        0.86741268        2.25874807
 C           -0.00609280        3.22420368        2.93100472
 C           -1.35998327        2.79237142        2.62936514
 C            1.73614783        2.84624348        1.41075306
 C            0.59717683        3.69157787        1.69596205
 C            2.43744271        0.99825252        0.03534707
 C            1.81130636        2.24187259        0.16324049
 C            2.59397560        0.42868243       -1.23468275
 C            3.45504351       -1.59405335       -0.25516707
 C            3.04317097       -2.97382877       -0.06137594
 C            2.96644396       -0.91173772       -1.36351996
 C            0.78816354       -3.58791529       -0.03868034
 C            1.96920749       -3.48671319       -0.88617811
 C           -1.22317283       -2.32803875        0.41443713
 C           -0.40597867       -3.03256078       -0.48046269
 C           -3.12382975       -0.88401642        0.74181008
 C           -2.44974316       -1.81620977       -0.03233563
 C           -3.20936274        1.45139996        1.00796171
 C           -3.56978342        0.35416760        0.12211198
 C           -1.68192872        3.28365903        1.29784263
 C           -0.44943209        3.77858119        0.70029538
 C           -2.58005833        2.58191307        0.49497433
 C            1.03062191        2.73764199       -0.88370986
 C           -0.16526342        3.41416737       -0.60915016
 C            2.12200713        1.11397365       -2.35340137
 C            1.28357612        2.28576019       -2.17277596
 C            1.60328949        0.36660049       -3.48751887
 C            2.46515237       -1.66468254       -2.42724650
 C            1.81945975       -2.93943148       -2.14874215
 C            1.70863761       -1.01601325       -3.48619456
 C           -0.61385772       -2.91426977       -1.85517598
 C            0.48668081       -2.85311392       -2.70806067
 C            0.53128926       -1.83355954       -3.74323764
 C           -2.76444396       -1.85960224       -1.38726257
 C           -1.84310577       -2.47389323       -2.32021156
 C           -3.43820770        0.49434187       -1.25468658
 C           -3.31013905       -0.66465164       -2.01645325
 C           -2.49698795        2.74552015       -0.88615851
 C           -1.25324308        3.23871329       -1.45524019
 C           -3.01149301        1.71612077       -1.77688004
 C            0.19780308        2.21489606       -3.13760768
 C            0.36397723        0.99724301       -3.91376517
 C           -1.07199350        2.62360072       -2.75653371
 C           -2.21737259        1.76088464       -3.00006116
 C           -0.65700741       -1.23578003       -4.14190931
 C           -1.89765414       -1.72145100       -3.56398727
 C           -2.77873468       -0.58473004       -3.36442227
 C           -0.74461307        0.21479296       -4.22530444
 C           -2.06810874        0.61248921       -3.76563084
