   70
C70 / DATE: 7/ 1/2024 / Origin: Program Fullerene / C70 from database
 C            1.16691583       -0.01541587        4.27712143
 C            2.41610739       -0.32064453        3.62048591
 C            2.36743132       -1.71765111        3.21885358
 C            0.32555643       -1.20107956        4.20549277
 C            1.00160249       -2.17016279        3.36950755
 C           -1.00567966       -0.77322170        3.82480490
 C            0.38495221        1.09878949        3.78514120
 C           -1.00481364        0.68056345        3.76308470
 C            0.85763067        1.87948383        2.73418163
 C            2.79356046        0.45281449        2.45172419
 C            1.92967860        1.42608025        1.95179222
 C            2.97505773       -1.81115358        1.90947943
 C            3.40724487       -0.47513636        1.52510370
 C            2.38425398       -2.61461752        0.93995204
 C            0.33969460       -2.66871193        2.25274213
 C            1.08635827       -3.10103966        1.14779389
 C           -1.69369117       -1.47826771        2.84642868
 C           -1.04784657       -2.50336701        2.14401368
 C           -2.81582765       -0.87068743        2.29327845
 C           -1.88009104        1.32470241        2.88891406
 C           -2.89934154        0.58313390        2.29388573
 C           -0.03450957        2.79149752        2.19203166
 C           -1.46166286        2.51252640        2.29096036
 C            0.21771093        3.34526392        0.87894229
 C            1.99705675        1.74986843        0.58936332
 C            1.18275619        2.76281175        0.06706060
 C            3.42682133       -0.15799180        0.17403365
 C            2.89281238        1.06334958       -0.24216403
 C            2.86099129       -2.47694111       -0.36081145
 C            3.47696835       -1.21346717       -0.73277771
 C            2.06295884       -2.93177563       -1.48858575
 C            0.45051132       -3.79830585        0.12401134
 C            0.85429800       -3.56314591       -1.24988863
 C           -1.74025481       -3.17264875        1.13898486
 C           -0.99557490       -3.89920100        0.12973664
 C           -3.36601614       -1.35588176        1.03838259
 C           -2.82927253       -2.49435201        0.46022126
 C           -3.45197258        0.99510686        1.01209159
 C           -3.63149771       -0.19842275        0.20125248
 C           -2.08720096        2.97454148        1.06091427
 C           -1.06902990        3.70046709        0.31073940
 C           -3.00289901        2.15823048        0.39584247
 C           -1.18186713        3.80852012       -1.06537785
 C            1.14114375        2.99882686       -1.30946848
 C           -0.02386097        3.50867509       -1.89241704
 C            2.97984726        1.40085586       -1.58974727
 C            2.09663033        2.41582495       -2.13259210
 C            3.18127467       -0.97101449       -2.13194331
 C            2.12895796       -1.90145966       -2.51278386
 C            3.10175483        0.33815964       -2.57850838
 C            0.95186373       -1.40848581       -3.07790464
 C           -0.32049896       -3.10136017       -1.96728427
 C           -1.47437596       -3.45950424       -1.17416629
 C           -2.49779577       -2.46314616       -0.95304731
 C           -0.27726521       -1.86242734       -2.60039122
 C           -3.19759560       -0.18185253       -1.12165350
 C           -2.41017889       -1.23172383       -1.59599031
 C           -1.35541669       -0.96998538       -2.48658754
 C           -3.13567871        2.25873224       -0.98744686
 C           -2.34365520        3.23288000       -1.71333522
 C           -3.17430669        1.03772224       -1.78040493
 C           -0.50888585        2.93771653       -3.14293070
 C           -1.32499376        0.24416884       -3.18350014
 C           -1.90684939        2.61320988       -2.95274431
 C           -2.28829070        1.21263183       -2.91333953
 C            1.69822685        1.98723460       -3.46150425
 C            2.16954603        0.63071666       -3.64919622
 C            1.00718951       -0.22714505       -3.80523290
 C            0.28870808        2.01132457       -3.79398462
 C           -0.16537547        0.62496388       -3.86064005
