   70
C70 / DATE: 7/ 1/2024 / Origin: Program Fullerene / C70 from database
 C            1.56802541        0.08350030        4.58756490
 C            0.78202731       -1.12938524        4.47864613
 C            1.40653464       -1.98783862        3.48869640
 C            2.64708872       -0.00054480        3.61920530
 C            2.54469084       -1.26673746        2.93255040
 C            2.60957442        1.19912022        2.82211388
 C            0.71422937        1.19307336        4.19639590
 C            1.40524419        1.92847824        3.16642048
 C           -0.59510509       -0.73937319        4.27002863
 C           -0.59524701        0.66483138        3.88686284
 C           -1.40565596       -1.60357757        3.56033845
 C            0.59398604       -2.72815408        2.62979547
 C           -0.79315237       -2.68789700        2.79667862
 C            1.12136889       -3.12533835        1.40352489
 C            2.75589451       -1.31139544        1.55734758
 C            2.28827661       -2.42992899        0.88359825
 C            2.92422685        1.12295450        1.47337765
 C            2.99904575       -0.12892739        0.83784519
 C            2.59148277        2.22792937        0.70040987
 C            0.67897670        2.46163848        2.11179117
 C            1.41586535        2.92033462        1.02735155
 C           -1.21730550        1.04639004        2.69486798
 C           -0.64010838        2.03294765        1.88268705
 C           -2.42663572       -1.03426512        2.70939817
 C           -2.24164958        0.24596274        2.18544621
 C           -1.66961684       -2.95358718        1.66116912
 C           -2.83661747       -2.10140458        1.82304364
 C            0.23488077       -3.40411712        0.28256848
 C           -1.12005423       -3.12947287        0.39167133
 C            2.18975674       -2.41030474       -0.55876895
 C            0.93506705       -3.04755427       -0.93302682
 C            3.08010887       -0.17037492       -0.56579926
 C            2.61179410       -1.29147880       -1.26382253
 C            3.10801022        2.27624533       -0.58490535
 C            3.34242126        1.01507543       -1.26032510
 C            2.57667414        3.22159868       -1.54486227
 C            0.73432380        3.64965264        0.06648592
 C            1.35243258        3.91619035       -1.21647830
 C           -1.26861405        2.38183227        0.67863538
 C           -0.66203178        3.32930900       -0.15270634
 C           -2.83744334        0.56259765        0.96318354
 C           -2.26142665        1.54683887        0.14973760
 C           -3.56191138       -1.75995962        0.70119115
 C           -3.74762327       -0.34802994        0.42367865
 C           -1.84421312       -2.73105182       -0.73793342
 C           -3.17723296       -2.35124921       -0.56120866
 C            0.22227886       -2.54185954       -2.01226262
 C           -1.17175495       -2.43681604       -1.93939937
 C            2.17112836       -1.16205691       -2.57860798
 C            0.92406940       -1.80537298       -2.96649598
 C            2.90290000        1.16832807       -2.63916151
 C            2.36724464        2.51039414       -2.79285962
 C            2.23596281        0.12125941       -3.25054079
 C            0.37438053        3.61272162       -2.24596365
 C           -0.86347009        3.24223098       -1.58811230
 C            0.97146796        2.66711508       -3.16778826
 C           -2.50743683        1.56531876       -1.23219683
 C           -1.58497222        2.16831136       -2.07819244
 C           -4.11391761       -0.25853844       -0.97377427
 C           -3.85413276       -1.56368672       -1.56917763
 C           -3.45936708        0.72886713       -1.79722314
 C           -1.85496270       -1.86037243       -3.01377250
 C           -3.19715465       -1.34840622       -2.83450187
 C           -3.13643725        0.08754496       -3.05559664
 C            0.21743621       -0.90170460       -3.85992077
 C            0.92934632        0.36613676       -3.84200370
 C            0.24219810        1.53885889       -3.52867942
 C           -1.11110808        1.46283608       -3.19132278
 C           -1.16665949       -0.89316490       -3.84641924
 C           -1.84740270        0.37750275       -3.66049745
