   70
C70 / DATE: 7/ 1/2024 / Origin: Program Fullerene / C70 from database
 C            1.22906818        0.07760383        4.37697904
 C            2.52585224       -0.17758608        3.78941649
 C            2.57833745       -1.59172765        3.47575782
 C            0.41344159       -1.11472317        4.19341525
 C            1.21607311       -2.09293393        3.49263590
 C           -0.84318494       -0.70036592        3.60701290
 C            0.46558077        1.19811409        3.87475772
 C           -0.89735074        0.74615541        3.65699910
 C            1.02625213        2.03610305        2.91725910
 C            2.89593208        0.54994758        2.58692768
 C            2.04186491        1.53289949        2.09403072
 C            3.33599682       -1.73884392        2.25207660
 C            3.47908818       -0.40778935        1.66569869
 C            2.99647311       -2.78921057        1.41483403
 C            0.71744962       -2.69318123        2.33779538
 C            1.62867722       -3.29629504        1.46996329
 C           -1.30002874       -1.32594675        2.46278778
 C           -0.55540974       -2.34964701        1.85991697
 C           -2.28975622       -0.68484723        1.72936760
 C           -1.65445473        1.43820419        2.71120431
 C           -2.33083895        0.71592763        1.70977431
 C            0.18350789        3.01082541        2.40658836
 C           -1.24467358        2.74097032        2.44619776
 C            0.46505558        3.57837252        1.10574423
 C            1.99958114        1.77279080        0.71560130
 C            1.30313528        2.88665126        0.23862617
 C            3.29093247       -0.24363215        0.29332866
 C            2.53897544        0.83644158       -0.18157723
 C            3.35547171       -2.67376893        0.01936786
 C            3.49545602       -1.34165827       -0.53786824
 C            1.21835463       -3.62543136        0.11493750
 C            2.34480260       -3.37011801       -0.75497030
 C           -0.99106373       -2.86318389        0.63576031
 C           -0.04726158       -3.25195930       -0.31676554
 C           -2.95192404       -1.41512994        0.75519075
 C           -2.29625915       -2.60038171        0.23242769
 C           -3.56858172       -0.71897488       -0.35371482
 C           -2.86862986        1.38039336        0.59146752
 C           -3.34839891        0.64471718       -0.49501569
 C           -1.85955387        3.47619456        1.36836007
 C           -0.79235305        4.10868892        0.60754141
 C           -2.69000064        2.75407788        0.43473317
 C           -1.10670459        3.95642319       -0.79983475
 C           -2.39349799        3.28034022       -0.88465856
 C            1.16862479        3.08766582       -1.13211592
 C           -0.08752348        3.59648818       -1.67143831
 C            2.26379914        0.93464609       -1.55160082
 C            1.67753234        2.09121200       -2.05279433
 C            2.87991920       -1.36592919       -1.84870262
 C            2.11144845       -2.59894684       -1.95535638
 C            2.32339678       -0.20244561       -2.36186370
 C           -0.25168283       -2.94807176       -1.67081556
 C            0.82058783       -2.51951549       -2.46490150
 C           -2.63346024       -2.71253746       -1.17288564
 C           -3.47484968       -1.57986895       -1.52099836
 C           -1.55356540       -2.78332377       -2.13676842
 C           -2.98304413       -1.02093976       -2.76671684
 C           -1.82418233       -1.80176952       -3.17487866
 C           -3.31086778        1.19862290       -1.77654269
 C           -2.68236871        2.49161852       -1.98797419
 C           -2.97305240        0.36035816       -2.91627111
 C           -0.40379579        2.82973686       -2.86390301
 C            0.74809136        1.99741556       -3.16800100
 C           -1.68964196        2.32708961       -3.04014065
 C           -1.87955708        1.00750769       -3.62503216
 C            1.40579886       -0.34614749       -3.39992240
 C            0.59796590       -1.55275803       -3.44038146
 C           -0.75648868       -1.17777987       -3.80511515
 C            0.56787132        0.77162772       -3.79187579
 C           -0.77638894        0.26153845       -4.02308168
