   70
C70 / DATE: 7/ 1/2024 / Origin: Program Fullerene / C70 from database
 C            1.53636956       -0.05693385        4.63429556
 C            0.76218760       -1.24630882        4.33005669
 C            1.39488359       -1.92681127        3.21316903
 C            2.65779801       -0.01476563        3.71527536
 C            2.62014714       -1.20962098        2.90041877
 C            2.63066434        1.26154343        3.03298952
 C            0.69565557        1.09408020        4.35455265
 C            1.36062060        1.89953183        3.35457781
 C           -0.62035836       -0.84168314        4.18843142
 C           -0.63472735        0.60884575        4.06567071
 C           -1.42227571       -1.57387091        3.32656832
 C            0.59514859       -2.39430690        2.16656529
 C           -0.78604192       -2.44912154        2.34918823
 C            1.12359238       -2.43601366        0.87052846
 C            2.98502332       -1.09824606        1.56987051
 C            2.43271276       -1.99953267        0.66825243
 C            3.07611227        1.31253469        1.71552686
 C            3.47155302        0.12392400        1.09180969
 C            2.62101748        2.36518061        0.92633705
 C            0.61423368        2.45148100        2.31738592
 C            1.31480795        2.93096017        1.21460322
 C           -1.35129585        1.17618375        3.01703711
 C           -0.74165753        2.12104036        2.17272344
 C           -2.50130965       -0.88918773        2.63835139
 C           -2.48765339        0.50142635        2.57181726
 C           -1.65835025       -2.51687141        1.19152156
 C           -2.79361826       -1.64454643        1.43140451
 C            0.27977793       -2.63373785       -0.23215133
 C           -1.10677236       -2.54752935       -0.07657201
 C            0.82249344       -2.74064150       -1.51869950
 C            3.00780823       -2.10472560       -0.58725130
 C            2.17976484       -2.47926787       -1.71735531
 C            3.93513694        0.17716530       -0.22016514
 C            3.89252915       -1.03816887       -1.01624536
 C            2.77525041        2.30836065       -0.51794723
 C            3.50667639        1.27460997       -1.07499738
 C            0.62716354        3.12350611       -0.04856616
 C            1.50158421        2.67215855       -1.11604478
 C           -1.43254364        2.55798307        1.03901602
 C           -0.72167118        2.83362122       -0.13147972
 C           -3.30091305        1.11489343        1.63104674
 C           -2.79467154        2.29200984        0.95434922
 C           -3.37501235       -0.97556683        0.35803769
 C           -3.91777600        0.28521711        0.61194210
 C           -1.90169294       -2.17155472       -1.15366209
 C           -2.99894025       -1.32463866       -0.94767197
 C           -0.02824079       -2.72548750       -2.62502207
 C           -1.43633887       -2.41342887       -2.44127604
 C            0.41199923       -2.04512588       -3.82899081
 C            2.59866799       -1.67422133       -2.86058651
 C            3.51868242       -0.67019170       -2.36796579
 C            3.06930134        0.70808287       -2.33806271
 C            1.63103226       -1.26915640       -3.76393467
 C            0.97119860        1.89835508       -2.14938902
 C            1.80087859        1.00587774       -2.83844208
 C            1.24700821        0.13977020       -3.77712012
 C           -1.24878489        2.46578792       -1.36745374
 C           -0.42056331        1.85109249       -2.32058034
 C           -3.45324425        2.36412947       -0.33989086
 C           -4.26628676        1.16545379       -0.48399829
 C           -2.62866958        2.46966866       -1.52630358
 C           -3.54262112       -0.63850557       -2.03482146
 C           -4.10089982        0.68372952       -1.83597283
 C           -3.22360820        1.61640412       -2.52790556
 C           -1.85104448       -1.54305262       -3.53258631
 C           -0.64884378       -1.15029615       -4.24139396
 C           -0.17082327        0.21077854       -4.06767854
 C           -0.97768743        1.09938069       -3.36684488
 C           -2.77961982       -0.55343625       -3.26247303
 C           -2.34492359        0.83178607       -3.36581808
