   70
C70 / DATE: 7/ 1/2024 / Origin: Program Fullerene / C70 from database
 C            1.32285642        0.04439604        4.74358731
 C            2.51696601       -0.15504185        3.94996255
 C            2.52195510       -1.53615091        3.49431145
 C            0.49209631       -1.14059105        4.60291030
 C            1.25215988       -2.13496320        3.86374805
 C           -0.80119933       -0.71801474        4.08312012
 C            0.49184575        1.19335655        4.45947746
 C           -0.86193754        0.71631756        4.21129658
 C            0.84062704        2.06602099        3.35189682
 C            2.75214688        0.69152899        2.78979584
 C            1.87517473        1.72889347        2.47598619
 C            2.92171226       -1.53923342        2.09531954
 C            3.22100579       -0.16740211        1.72330066
 C            2.24074740       -2.34726773        1.18317734
 C            0.58588766       -2.90142174        2.92065574
 C            1.23093680       -3.18406647        1.64734644
 C           -1.29144423       -1.32548257        2.93005190
 C           -0.79988462       -2.58430230        2.61734334
 C           -1.92639719       -0.56548687        1.92945025
 C           -1.39191167        1.48143717        3.10664487
 C           -0.41811690        2.50746636        2.79119682
 C           -2.01588064        0.83126529        2.04418279
 C           -0.42313469        2.99677508        1.50063839
 C            1.80188929        2.18115546        1.15410325
 C            0.78653630        3.07582009        0.81602969
 C            2.99224156        0.21165907        0.41301692
 C            2.46281766        1.47415894        0.13821849
 C            2.26171689       -1.99731417       -0.17059486
 C            2.86142903       -0.78758913       -0.53766776
 C            1.45049783       -2.68756499       -1.08559508
 C            0.17540469       -3.58247967        0.73890092
 C           -1.08513751       -3.15024434        1.32438016
 C            0.34560903       -3.41338146       -0.62935353
 C           -2.33296380       -1.18447713        0.73337174
 C           -2.00422198       -2.53134509        0.49511782
 C           -2.90138840       -0.40483529       -0.28907450
 C           -2.26179797        1.59170489        0.90027948
 C           -1.57736599        2.80597625        0.75588077
 C           -2.85994585        0.98822543       -0.20478557
 C           -1.71232430        3.55597150       -0.40238705
 C            0.77784883        3.63256327       -0.45664892
 C           -0.49804111        4.06124058       -1.01487427
 C            2.31519399        1.86693423       -1.20102031
 C            1.51744226        2.96619417       -1.51187566
 C            2.93337864       -0.41856072       -1.86835351
 C            2.58218458        0.94549994       -2.21826340
 C            1.56322301       -2.41168493       -2.44748427
 C            2.38637130       -1.29955601       -2.87659594
 C            0.36883068       -2.40038890       -3.27384173
 C           -0.81000908       -3.45752708       -1.40937797
 C           -2.05809625       -3.03001487       -0.79848347
 C           -0.79225114       -2.97140170       -2.77803353
 C           -3.25943209       -0.98977046       -1.50568838
 C           -2.83685276       -2.34007551       -1.79299409
 C           -2.06120406       -2.30840401       -3.02509373
 C           -3.07670519       -0.23694086       -2.73315362
 C           -2.05703643       -0.93475154       -3.49497670
 C           -3.13797938        1.74912457       -1.34172611
 C           -2.57563404        3.07896628       -1.45842808
 C           -3.00478070        1.13769414       -2.64969410
 C           -0.52444729        3.69220157       -2.41911036
 C            0.64963962        2.88928731       -2.67808701
 C           -1.82189163        3.12722800       -2.70477486
 C           -1.88995336        1.80499298       -3.29432029
 C            1.68556222        0.88499977       -3.36336484
 C            1.60338317       -0.49051693       -3.79828966
 C            0.29808493       -1.09558744       -3.91658317
 C           -0.83705422       -0.30610300       -3.74598715
 C            0.54203533        1.67315652       -3.34772759
 C           -0.72101756        1.07772773       -3.54038892
