   70
C70 / DATE: 7/ 1/2024 / Origin: Program Fullerene / C70 from database
 C            1.31443779       -0.00446908        4.08787963
 C            2.47483182       -0.20556172        3.23850001
 C            2.44576228       -1.59604274        2.82108506
 C            0.46557115       -1.17821403        3.94357362
 C            1.07092177       -2.03835165        2.95444722
 C           -0.87966217       -0.72387424        3.70840053
 C            0.49028592        1.17482041        3.88983254
 C           -0.87859490        0.72954404        3.69491247
 C            0.97842357        2.21079551        3.11193699
 C            2.82495478        0.77778695        2.31371452
 C            2.24604145        2.04453392        2.41454029
 C            3.52506942        0.41316221        1.15850215
 C            3.13581545       -1.95545863        1.68239260
 C            3.85787955       -0.92592161        0.95629610
 C            2.44421656       -2.75363262        0.68830839
 C            0.34785498       -2.37335154        1.80702059
 C            1.04776120       -2.73788216        0.65207393
 C           -1.65873344       -1.36863002        2.76163496
 C           -1.02719423       -2.10477549        1.73871451
 C           -2.86857262       -0.75017040        2.49251993
 C           -1.71129106        1.37510425        2.77760711
 C           -2.87343302        0.70197246        2.41003996
 C            0.07257073        2.89765150        2.20984978
 C           -1.16381377        2.32470107        1.90475895
 C            2.22395767        2.92905205        1.26299130
 C            0.88235467        3.48443532        1.15615777
 C            3.64969071        1.31346336        0.09835868
 C            2.91786127        2.56764980        0.11797239
 C            3.63639391        0.82641591       -1.27403236
 C            4.03277410       -1.42031049       -0.39772423
 C            3.18358495       -2.59388560       -0.54152759
 C            3.76522725       -0.53091834       -1.51423442
 C            2.43611361       -2.45087141       -1.76309012
 C            2.80459672       -1.18882581       -2.38283219
 C            0.37483223       -2.83495460       -0.57482451
 C            1.09670420       -2.80373211       -1.78521112
 C           -1.72670486       -2.41930075        0.56426131
 C           -1.02685063       -2.78383480       -0.59058380
 C           -3.70225431       -1.26686610        1.43887581
 C           -3.09422980       -2.14807005        0.47152694
 C           -3.55141874        1.05915326        1.18258012
 C           -4.24734531       -0.12968095        0.71611406
 C           -1.74544198        2.55672192        0.64839150
 C           -2.89897477        1.86879668        0.26343441
 C            0.31569418        3.68922729       -0.09115731
 C           -1.07748855        3.33757032       -0.29531511
 C            2.30459173        2.74368009       -1.19071682
 C            2.61790662        1.57196374       -1.99025478
 C            1.04446609        3.30966799       -1.29371956
 C            1.79930343       -0.45334072       -3.01532537
 C            1.59911770        0.88570393       -2.65443634
 C            0.43160347       -2.46901702       -2.95319682
 C            0.73977386       -1.17993978       -3.55223039
 C           -1.71550737       -2.86617662       -1.80354459
 C           -0.98997029       -2.67953019       -3.03672956
 C           -3.66792470       -1.80216942       -0.81577816
 C           -4.21182361       -0.45592028       -0.69733147
 C           -2.97537693       -2.16288445       -1.95856977
 C           -3.22269881        1.75724387       -1.09042067
 C           -3.81313289        0.52520340       -1.59591967
 C           -1.23385948        3.03448628       -1.70552497
 C            0.08847265        2.73026229       -2.21926134
 C            0.33107705        1.47512544       -2.77802678
 C           -2.29616935        2.24174856       -2.09906530
 C           -0.51979613       -0.51984782       -3.81996050
 C           -1.56273533       -1.52794009       -3.71382822
 C           -2.79795829       -1.19232133       -3.03037734
 C           -3.08549638        0.14621377       -2.79660045
 C           -0.74233908        0.74549119       -3.29519288
 C           -2.05170367        1.14732588       -3.02266161
