   70
C70 / DATE: 7/ 1/2024 / Origin: Program Fullerene / C70 from database
 C            1.66917293       -0.14601286        5.06000138
 C            0.82836055       -1.31564547        5.22789212
 C            1.29949168       -2.32595440        4.30267306
 C            2.59442747       -0.40748615        3.96671547
 C            2.33830562       -1.73717933        3.46911852
 C            2.49614717        0.69257424        3.03664022
 C            0.81540621        0.95065482        4.64563371
 C            1.45647207        1.58503914        3.51807027
 C           -0.52127271       -0.96082279        4.81955358
 C           -0.52619347        0.44285076        4.44779513
 C            0.13382453       -2.88069163        3.64070465
 C           -0.95613619       -1.93389762        3.83109838
 C            0.32013287       -3.40491669        2.37517544
 C            2.26619912       -1.94697711        2.09357126
 C            1.54146042       -3.05232602        1.66887745
 C            2.53943476        0.43926257        1.66566391
 C            2.46940918       -0.88127726        1.19467361
 C            2.12647405        1.46952442        0.82212769
 C            0.65810394        2.17218703        2.55341168
 C            1.26510310        2.43958269        1.34159360
 C           -1.19739240        0.81532000        3.28672285
 C           -0.71467389        1.89417067        2.53725647
 C           -1.66014821       -1.47615398        2.71645663
 C           -2.00789390       -0.12472693        2.65465734
 C           -0.75074172       -3.27556628        1.40662373
 C           -1.66400214       -2.24012552        1.54189747
 C            1.27493845       -3.21626876        0.26380820
 C           -0.14518733       -3.49523049        0.11365735
 C            2.30727552       -1.10038742       -0.18687568
 C            1.86216349       -2.35036880       -0.64292502
 C            2.20620455        1.29172694       -0.55635195
 C            2.31258151       -0.00489173       -1.06814248
 C            1.84428013        2.34811718       -1.39497472
 C            0.57527516        3.26399278        0.47800323
 C            0.97061305        3.31590038       -0.91001241
 C           -1.47245338        2.35063086        1.44797709
 C           -0.87374711        3.21519304        0.52978128
 C           -2.82479352        0.30547686        1.62184095
 C           -2.59614972        1.62418332        1.05399172
 C           -2.28783590       -1.73895390        0.39670787
 C           -3.08072369       -0.60183457        0.52172151
 C           -0.77511413       -3.01073013       -1.02391410
 C           -1.89217087       -2.17823198       -0.87809846
 C            1.41422760       -2.47050787       -1.94936986
 C            0.02980507       -2.86777729       -2.15051237
 C            2.20209824       -0.21658955       -2.44814790
 C            1.71370567       -1.43375185       -2.90574502
 C            1.96276206        2.20101635       -2.77019456
 C            2.16753101        0.87355329       -3.31444675
 C            1.00141427        2.88754475       -3.61949783
 C           -0.22183279        3.64482475       -1.67151804
 C           -1.35204474        3.26074269       -0.84476605
 C           -0.24103477        3.33717843       -3.02009865
 C           -2.96951025        1.56658647       -0.35479249
 C           -3.38572763        0.20503980       -0.64433677
 C           -2.22943578        2.27999795       -1.29464122
 C           -2.45750487       -1.59199955       -2.01378070
 C           -3.14763628       -0.31792324       -1.90103483
 C           -0.46888488       -2.17591532       -3.32255287
 C            0.65256680       -1.45453399       -3.90288452
 C           -1.71833618       -1.57847335       -3.26846910
 C            1.38315757        0.77046915       -4.53746808
 C            0.66770354        2.01712680       -4.72916887
 C            0.42275251       -0.31040693       -4.65180007
 C           -1.29624005        2.46910215       -3.51767016
 C           -2.13394115        1.81534290       -2.61182255
 C           -2.63559142        0.55485602       -2.94222890
 C           -1.92143144       -0.28145289       -3.89508876
 C           -0.75275620        1.72447196       -4.64329338
 C           -0.91044315        0.28174851       -4.66546972
