   70
C70 / DATE: 7/ 1/2024 / Origin: Program Fullerene / C70 from database
 C            1.57976001       -0.00139694        4.78703944
 C            0.76762192       -1.18703302        4.59651751
 C            1.40466632       -2.01365562        3.58775408
 C            2.68120780       -0.06477709        3.84257074
 C            2.54942513       -1.27609150        3.06947515
 C            2.70740526        1.18282676        3.12718084
 C            0.76422233        1.14918455        4.43293436
 C            1.49882780        1.92059378        3.46166482
 C           -0.59288188       -0.75360563        4.36256396
 C           -0.54642146        0.66976631        4.06338728
 C           -1.39719505       -1.55881939        3.57494326
 C            0.60413449       -2.71704529        2.69053200
 C           -0.78589756       -2.64329255        2.81344027
 C            1.16199851       -3.08211316        1.46938650
 C            2.74822734       -1.23063912        1.69046126
 C            2.28548612       -2.31407790        0.95272265
 C            3.09168182        1.18855436        1.79571856
 C            2.97554946       -0.00035744        1.04455488
 C            2.88074389        2.39664590        1.15123812
 C            0.81454841        2.53035979        2.41384716
 C            1.61875635        3.07008622        1.41586816
 C           -1.13391364        1.12875779        2.88499387
 C           -0.46114074        2.05527452        2.06358740
 C           -2.36881053       -0.92550569        2.70332602
 C           -2.22445155        0.41966967        2.37896201
 C           -1.63532997       -2.88631074        1.65569494
 C           -2.68244612       -1.87371282        1.65079596
 C            0.30689505       -3.42984760        0.34670018
 C           -1.07525325       -3.28442731        0.44698428
 C            2.12565874       -2.19804460       -0.48291485
 C            0.98847698       -3.00825743       -0.86921276
 C            2.90320877        0.06708495       -0.36136996
 C            2.30845185       -0.96592263       -1.08866628
 C            3.14841311        2.48965944       -0.25855623
 C            3.18840008        1.25944809       -1.01355710
 C            1.04102318        3.41729011        0.13448233
 C            2.10788303        3.32253426       -0.83396837
 C           -1.01390117        2.39740572        0.81961791
 C           -0.20890159        2.91215400       -0.19862625
 C           -2.89258359        0.90280695        1.26497497
 C           -2.30612832        1.99850249        0.52042990
 C           -3.16130506       -1.40028693        0.43356004
 C           -3.44704591       -0.04249845        0.30596424
 C           -1.81682624       -3.10144193       -0.71566561
 C           -2.92887062       -2.16063231       -0.70705429
 C            0.23414319       -2.62040305       -1.96527256
 C           -1.12128847       -2.93371811       -1.97794785
 C            1.68135463       -0.70583834       -2.31714760
 C            0.70536817       -1.60249630       -2.79588096
 C            2.54663802        1.53585140       -2.28163082
 C            1.78985382        2.76789095       -2.12201348
 C            1.93115662        0.50574691       -2.98451746
 C           -0.54114124        2.69218750       -1.55052982
 C            0.46778344        2.74732430       -2.53554185
 C           -2.70148877        1.85404965       -0.86625177
 C           -3.41401242        0.59187350       -1.00130848
 C           -1.83371726        2.24186762       -1.88053705
 C           -3.00378206       -1.54718280       -2.02578586
 C           -2.01334448       -2.21241055       -2.86612148
 C           -3.21627227       -0.17140911       -2.14759374
 C           -0.02769949       -1.30454190       -3.94402953
 C           -1.46632803       -1.52336689       -3.93459651
 C            1.06353060        0.91273737       -3.99424402
 C            0.26301793        2.10172086       -3.74457901
 C            0.21864490       -0.06237218       -4.63720642
 C           -2.10775772        1.76449236       -3.16127868
 C           -2.78833644        0.48362741       -3.30014435
 C           -2.09191042       -0.27728391       -4.32128597
 C           -1.08281109        1.83221405       -4.17480027
 C           -1.06497064        0.57062670       -4.89403775
