   70
C70 / DATE: 7/ 1/2024 / Origin: Program Fullerene / C70 from database
 C            1.64434930        0.05053844        4.58612319
 C            0.83136456       -1.15027010        4.62494081
 C            1.37655254       -2.09086375        3.66443451
 C            2.59813998       -0.09358338        3.49894959
 C            2.43774131       -1.40951488        2.93201418
 C            2.44315782        1.03876930        2.62061607
 C            0.76986484        1.16051046        4.25525531
 C            1.35548616        1.85678844        3.12907661
 C           -0.55668673       -0.75694538        4.48639229
 C           -0.57572481        0.64668744        4.10137295
 C           -1.41684804       -1.63403846        3.84779463
 C            0.50079921       -2.91474031        2.95928222
 C           -0.86959955       -2.83491476        3.23026977
 C            0.93985562       -3.43894720        1.74350976
 C            2.50037346       -1.57006826        1.55124420
 C            2.03448643       -2.77398820        1.05265543
 C            2.51379063        0.84798220        1.24455930
 C            2.54227328       -0.44596120        0.70405832
 C            2.04739772        1.87883269        0.44612793
 C            0.50802764        2.43156294        2.19159778
 C            1.04962572        2.71984744        0.94530408
 C           -1.30155093        1.04988892        2.98152729
 C           -0.86192773        2.16532927        2.26316769
 C           -2.39859084       -1.09934901        2.92339203
 C           -2.20524890        0.16641119        2.38072761
 C           -1.83566287       -3.26811092        2.23433142
 C           -2.78491673       -2.18198573        2.04028020
 C           -0.01182086       -3.88988701        0.73741193
 C           -1.36719017       -3.68511577        0.92876915
 C            1.82843246       -2.92415309       -0.36523583
 C            0.55999490       -3.60445663       -0.56374235
 C            2.38607994       -0.60537821       -0.69018763
 C            2.15027475       -1.88192759       -1.22329049
 C            2.24301754        1.80198056       -0.92112492
 C            2.27930342        0.53349628       -1.51742891
 C            1.92595314        2.93015716       -1.66700326
 C            0.29938076        3.48179349        0.05691410
 C            0.85930010        3.78720042       -1.17893063
 C           -1.67895972        2.65378750        1.24894233
 C           -1.08887905        3.44900549        0.18184703
 C           -2.67511814        0.43480441        1.09262524
 C           -2.62854182        1.74243089        0.63371682
 C           -2.87391145       -1.91612596        0.61647035
 C           -2.11442705       -2.94241256       -0.07380767
 C           -2.78270311       -0.60326969        0.16307096
 C           -0.25483308       -3.15836097       -1.59630052
 C           -1.50447780       -2.60835550       -1.27864609
 C            1.67283185       -1.99902051       -2.52164422
 C            0.40400290       -2.68736811       -2.72513051
 C            2.04570560        0.39010007       -2.89878982
 C            1.70749975       -0.85782792       -3.40447537
 C            1.79703657        2.82166493       -3.09935637
 C            1.69634699        1.50030782       -3.67113341
 C           -0.02767679        4.05537823       -2.29408640
 C            0.61734316        3.57092979       -3.49981772
 C           -1.91241686        3.24167265       -1.00067909
 C           -2.61281219        1.98902633       -0.79741548
 C           -1.36845659        3.50495332       -2.24611565
 C           -2.41961572       -0.37899485       -1.16870194
 C           -1.92533198       -1.44359355       -1.92719851
 C           -2.38095146        0.92823592       -1.66828867
 C           -0.34989235       -1.93269303       -3.70143752
 C            0.55075894       -0.95472604       -4.27638668
 C           -1.52413048       -1.22845858       -3.23763502
 C            0.46981758        1.45201117       -4.46216829
 C           -0.29196128        2.63723629       -4.13561600
 C           -1.45228569        2.48108699       -3.27615685
 C           -1.86765217        1.18796589       -2.94484078
 C           -0.21371558        0.24956780       -4.51615407
 C           -1.45184807        0.12746497       -3.74984642
