   70
C70 / DATE: 7/ 1/2024 / Origin: Program Fullerene / C70 from database
 C            1.72197239       -0.00254769        4.59347609
 C            0.87385843       -1.16875898        4.44371308
 C            1.30223572       -1.88945449        3.25557725
 C            2.65533733        0.00629069        3.48265882
 C            2.44911458       -1.19286971        2.69747783
 C            2.52448842        1.27547109        2.80422098
 C            0.87625278        1.17205443        4.46762165
 C            1.32950775        1.92849948        3.31278235
 C           -0.50529571       -0.72631581        4.52442864
 C           -0.50381760        0.73255334        4.51017106
 C           -1.45344692       -1.41451862        3.77937703
 C            0.33613769       -2.38948288        2.38793262
 C           -1.00404574       -2.36947127        2.77528642
 C            0.64543443       -2.53047871        1.03606956
 C            2.55669291       -1.09213152        1.31441064
 C            1.81463375       -1.95786777        0.52284155
 C            2.72717939        1.30517881        1.43671670
 C            2.98504788        0.11149048        0.75396461
 C            2.10762594        2.32344931        0.73479742
 C            0.39116327        2.41805410        2.39791720
 C            0.78961383        2.62843683        1.07129516
 C           -1.43189545        1.41007760        3.72989886
 C           -0.96544430        2.34146478        2.70775982
 C           -2.58624642       -0.69796677        3.21863549
 C           -2.57031073        0.69233393        3.18362654
 C           -2.04205685       -2.46099584        1.76027638
 C           -3.03859296       -1.44331730        2.05466106
 C           -0.33829837       -2.98120022        0.15969854
 C           -1.67816082       -2.69941739        0.43825347
 C            0.03437514       -3.34098876       -1.12729139
 C            2.02659349       -1.94799559       -0.85370473
 C            1.28338931       -2.81832608       -1.65099350
 C            3.15984489        0.18579628       -0.63152514
 C            2.71594628       -0.87732176       -1.43542551
 C            2.54792316        2.54238315       -0.55557607
 C            3.28401045        1.46413107       -1.18112309
 C            1.60815468        3.02907452       -1.54138354
 C           -0.16933097        2.73087801        0.05139920
 C            0.24761426        2.93309851       -1.26879067
 C           -1.94341755        2.34656426        1.63622474
 C           -2.98312541        1.38800400        1.97604852
 C           -1.51272725        2.44511979        0.31791836
 C           -3.64233926       -0.77211815        1.00148485
 C           -3.60290921        0.68246335        0.95474239
 C           -2.53438818       -2.28790863       -0.59078692
 C           -3.44168782       -1.26253385       -0.35134167
 C           -0.95622720       -3.26068948       -2.17893008
 C           -2.17338133       -2.52460172       -1.91125345
 C            1.08994380       -2.53034726       -3.06370764
 C           -0.32476164       -2.67752015       -3.34823102
 C            2.76455913       -0.77583497       -2.82834997
 C            1.75911225       -1.45480886       -3.62104228
 C            3.19246371        1.66502426       -2.61144699
 C            2.11528465        2.61741454       -2.84264875
 C            2.96509544        0.51687319       -3.45514423
 C            0.98416934       -0.41652399       -4.28655659
 C            1.20223496        2.03131358       -3.80538951
 C            1.79212120        0.79069492       -4.27253159
 C           -0.63775852        2.68340240       -2.31427531
 C           -0.15963528        2.07396869       -3.54743808
 C           -2.35094787        1.99739496       -0.70659489
 C           -3.34707850        1.07053368       -0.42111625
 C           -3.45346799       -0.11962232       -1.24801487
 C           -1.93498293        2.10817457       -2.02448811
 C           -2.25153015       -1.42458032       -2.86418379
 C           -1.08215233       -1.49786263       -3.72881492
 C           -0.39048010       -0.33641654       -4.05857816
 C           -0.98253873        0.90000395       -3.80497336
 C           -2.72784961       -0.18513040       -2.43673896
 C           -2.13880291        0.98025987       -2.92497386
