   70
C70 / DATE: 7/ 1/2024 / Origin: Program Fullerene / C70 from database
 C            1.33458073       -0.02881045        4.27321432
 C            2.58011568       -0.40790412        3.64408540
 C            2.50590505       -1.82359423        3.32456585
 C            0.51177315       -1.22042264        4.38102053
 C            1.15283848       -2.26974961        3.60820092
 C           -0.85116104       -0.84982984        4.05170716
 C            0.52846452        1.00059364        3.64838602
 C           -0.84594056        0.53851032        3.61316684
 C            1.01112300        1.69380349        2.54760911
 C            2.98567369        0.28822105        2.44053544
 C            2.25484146        1.37396752        1.98139148
 C            3.03800038       -2.00530241        1.98749083
 C            3.41346501       -0.69735049        1.46903835
 C            2.40838019       -2.90113748        1.14062372
 C            0.42251570       -2.92614063        2.61679529
 C            1.06933889       -3.37697149        1.46448980
 C           -1.62619021       -1.75870688        3.35255741
 C           -0.97010920       -2.83726854        2.62181162
 C           -2.69326225       -1.25534330        2.51033820
 C           -1.66012698        0.92098635        2.54356933
 C           -2.73253893        0.10028126        2.18475542
 C            0.09347071        2.40681292        1.78195882
 C           -1.21002148        1.91035013        1.65460032
 C            0.59576666        3.28575871        0.83254129
 C            2.52611518        1.82865530        0.69675852
 C            1.92319995        3.01826612        0.31691589
 C            3.23208481       -0.41723318        0.11270828
 C            2.91727931        0.89522061       -0.27803189
 C            2.45500315       -2.65844760       -0.28704671
 C            3.00623425       -1.47600437       -0.77286095
 C            0.32348847       -3.49082521        0.21755560
 C            1.20813638       -3.12802319       -0.86801724
 C           -1.70363381       -3.03141739        1.37918078
 C           -2.91612528       -2.24166121        1.46619541
 C           -1.00185014       -3.08938014        0.17948170
 C           -3.53295864       -1.83263336        0.29678161
 C           -3.58689191        0.50348391        1.16648633
 C           -4.13296496       -0.51256859        0.28145017
 C           -1.99485247        2.26848038        0.54936171
 C           -3.22646858        1.64860768        0.35127994
 C           -0.23644574        3.68524629       -0.28203405
 C           -1.45134925        3.04334860       -0.47910533
 C            1.96284553        3.42744732       -1.06594518
 C            0.64025660        3.91648978       -1.41955998
 C            2.82336886        1.20483475       -1.64344094
 C            2.35830716        2.45328248       -2.05628030
 C            2.79798055       -1.19651553       -2.11636339
 C            2.86800261        0.17456821       -2.57551655
 C            0.70957799       -2.45078431       -1.97304814
 C            1.65208249       -1.81075383       -2.76894035
 C           -1.49214609       -2.42231502       -0.94762684
 C           -2.82033256       -2.00075892       -0.96187532
 C           -0.61308898       -1.97827189       -1.94744996
 C           -4.05694724       -0.01105770       -1.07457929
 C           -3.68462126        1.38845206       -1.00589545
 C           -3.21070474       -0.91268992       -1.83815629
 C           -1.94045621        2.90768717       -1.77820882
 C           -2.95420206        1.91081208       -2.05939961
 C            0.28550961        3.35045523       -2.70858992
 C            1.40761387        2.53942797       -3.15645726
 C           -1.01292741        2.89653050       -2.90044332
 C            2.04517550        0.26410005       -3.77098600
 C            1.21466036       -0.92892196       -3.82262899
 C            1.17822736        1.41582218       -3.94064595
 C           -1.04850940       -1.02048848       -2.88261759
 C           -2.26512189       -0.36381684       -2.69317920
 C           -2.37168015        0.98901494       -3.02245012
 C           -1.25228343        1.67179736       -3.65177711
 C           -0.16544207       -0.50688984       -3.83051711
 C           -0.18004837        0.91867422       -4.10893429
