   70
C70 / DATE: 7/ 1/2024 / Origin: Program Fullerene / C70 from database
 C            1.40010492       -0.26809060        4.69430733
 C            2.63368180       -0.47051043        3.95877830
 C            2.57475801       -1.78239405        3.33364747
 C            0.55506701       -1.43137011        4.47687465
 C            1.29464749       -2.38194911        3.66360959
 C           -0.73731997       -0.95988003        4.00399654
 C            0.60265899        0.91510666        4.41972285
 C           -0.76624889        0.47879743        4.18807156
 C            1.13734162        1.93795707        3.64167181
 C            3.01086822        0.49174261        2.93942074
 C            2.35286979        1.71229791        2.86830092
 C            2.94079113       -1.63369475        1.93230148
 C            3.27418844       -0.23867887        1.71215793
 C            2.21021605       -2.31522599        0.95612523
 C            0.61566129       -3.06682220        2.66795349
 C            1.24345792       -3.22427003        1.36617329
 C           -1.28267471       -1.52244403        2.84992128
 C           -0.77843182       -2.73854854        2.41193224
 C           -2.03806975       -0.73100201        1.97476800
 C           -1.59847857        1.23506684        3.37834874
 C           -2.37954932        0.55986643        2.35518216
 C            0.24987821        2.76545013        2.84027948
 C           -1.10637241        2.47644993        2.80159357
 C            2.17472521        2.34109949        1.57170704
 C            0.93764670        3.09642315        1.60185080
 C            2.94397629        0.32336799        0.48842995
 C            2.49708374        1.64740464        0.41073007
 C            2.13927571       -1.78511646       -0.33933814
 C            2.71054215       -0.53269227       -0.58138705
 C            1.29357139       -2.37086349       -1.30092340
 C            0.18327451       -3.57348821        0.45126154
 C           -1.07368140       -3.18108329        1.06931233
 C            0.32758868       -3.30851932       -0.89901554
 C           -2.27079333       -1.14630754        0.65415846
 C           -1.98021720       -2.46928094        0.29300284
 C           -2.62665232       -0.20096311       -0.33102286
 C           -2.68626047        1.53791390        1.33627201
 C           -1.83238572        2.69213740        1.56647895
 C           -2.88653732        1.12883042        0.02370510
 C            0.21262249        3.22167777        0.41943431
 C           -1.18855248        3.25187188        0.46976379
 C            1.98746653        2.11327577       -0.80145374
 C            0.85967496        2.94367814       -0.79209501
 C            2.66232236        0.01682871       -1.84933277
 C            2.33395619        1.42474380       -1.96178505
 C            1.25374848       -1.84427501       -2.60533079
 C            1.97407617       -0.69105164       -2.90621707
 C            0.28830073       -2.28312483       -3.51319138
 C           -0.84394644       -3.40898702       -1.63292665
 C           -2.04650087       -2.84047147       -1.04435766
 C           -0.82531006       -3.06460820       -3.02981458
 C           -2.67498351       -0.57363807       -1.68185844
 C           -2.59215260       -1.92036206       -2.01470606
 C           -2.03856407       -2.31158253       -3.29938066
 C           -2.60175171        0.39888321       -2.68974067
 C           -2.80071507        2.11553507       -0.95361350
 C           -1.90008356        3.23668017       -0.72288151
 C           -2.69861214        1.74054222       -2.34785383
 C            0.22785509        3.27368013       -1.98795908
 C           -1.19859929        3.50518406       -1.95944477
 C           -1.80350624        2.68776119       -2.99423790
 C            1.57248707        1.61167471       -3.18351314
 C            1.41098177        0.30681067       -3.80720059
 C            0.52618472        2.52315784       -3.19734257
 C           -0.73693598        2.17062478       -3.83345132
 C           -0.25973560       -1.34556126       -4.47878035
 C           -1.69679622       -1.27910944       -4.24985444
 C           -2.00969164        0.09232819       -3.91590541
 C            0.24607221        0.01647261       -4.50360556
 C           -0.89951335        0.90464398       -4.38172436
