   70
C70 / DATE: 7/ 1/2024 / Origin: Program Fullerene / C70 from database
 C            1.27678093       -0.13904093        4.31731477
 C            2.54501451       -0.49705942        3.73233997
 C            2.49934685       -1.91212825        3.39027100
 C            0.45117701       -1.33698147        4.36778149
 C            1.16423419       -2.39911880        3.68623345
 C           -0.87795146       -0.96937356        3.91101867
 C            0.49131152        0.90315065        3.68797278
 C           -0.89043945        0.47510431        3.73974792
 C            0.94464719        1.53520852        2.52992652
 C            2.98992887        0.21401186        2.55152166
 C            2.18009555        1.18966877        1.96175395
 C            3.02294819       -2.04802137        2.03943610
 C            3.62491002       -0.77290490        1.70020242
 C            2.27623158       -2.72335818        1.07505923
 C            0.49719257       -3.15370453        2.73245988
 C            1.15346218       -3.45308673        1.46893836
 C           -1.54187034       -1.76413040        2.97765968
 C           -0.90733479       -2.88731854        2.44447819
 C           -2.61563291       -1.20647591        2.28780339
 C           -1.77893059        1.02888179        2.83168640
 C           -2.81367867        0.23050749        2.35268299
 C            0.01338776        2.23955696        1.76496789
 C           -1.35305350        2.10416058        2.05546294
 C            0.42710645        2.86250982        0.58478173
 C            2.46859381        1.58284494        0.65195321
 C            1.62711327        2.47683937       -0.01131836
 C            3.80230606       -0.45964352        0.36671825
 C            3.41146407        0.86124489       -0.08293379
 C            2.48180683       -2.43575057       -0.27944709
 C            3.33335076       -1.39379752       -0.64362437
 C            1.62951307       -2.97148341       -1.24287388
 C            0.10828004       -3.74636096        0.50614187
 C           -1.14480255       -3.25150465        1.05467749
 C            0.36687622       -3.56822356       -0.83965551
 C           -2.88140726       -1.61553933        0.91595672
 C           -1.98424398       -2.45821894        0.27409768
 C           -3.52333725        0.62963843        1.14806625
 C           -3.42523681       -0.47170502        0.20439223
 C           -2.29673831        2.73196408        1.25185195
 C           -3.35967966        1.92331774        0.67978143
 C           -0.45342064        3.68805844       -0.11120665
 C           -1.85645062        3.66643046        0.23762902
 C           -0.37007771        3.76160860       -1.55967511
 C            1.83937688        2.73129000       -1.36808024
 C            0.76143941        3.26071615       -2.18574709
 C            3.28049134        0.77860562       -1.52424548
 C            3.04624864       -0.61975930       -1.84534489
 C            2.54128875        1.74863732       -2.17272654
 C            1.38865152       -2.23352381       -2.47632990
 C            1.96140624       -0.97382512       -2.64483229
 C           -0.66531922       -2.98671273       -1.67384436
 C           -1.69755003       -2.26154554       -1.07968084
 C           -0.00017790       -2.45114663       -2.84606974
 C           -3.01193278       -0.22100489       -1.10043853
 C           -2.28461005       -1.20325088       -1.78364797
 C           -3.33763402        2.14860432       -0.75246458
 C           -2.60839383        3.38472787       -0.97447371
 C           -1.68928899        3.45784711       -2.09673836
 C           -3.12156716        1.07811110       -1.61790228
 C           -1.81590611        2.52180490       -3.11681464
 C           -2.66482513        1.35844361       -2.90273379
 C            0.62778395        2.39226118       -3.34815537
 C            1.63982212        1.35027754       -3.23754970
 C            1.28065405        0.00805887       -3.37416576
 C           -0.63362960        2.07323682       -3.83397656
 C           -0.65347661       -1.48736769       -3.59104599
 C           -1.94091400       -1.01076724       -3.12009175
 C           -2.15664178        0.28490348       -3.72768751
 C            0.09021746       -0.31893884       -4.02182820
 C           -0.88830619        0.72053952       -4.29541663
