   70
C70 / DATE: 7/ 1/2024 / Origin: Program Fullerene / C70 from database
 C            0.75498704        0.00135685        5.24958371
 C            2.11212334       -0.32044123        4.85687433
 C            2.08560302       -1.65658756        4.27677922
 C           -0.06429932       -1.15536758        4.92412585
 C            0.70048785       -1.97284540        4.00230284
 C           -1.34878065       -0.66252393        4.49594045
 C            0.10325299        1.16676874        4.67505291
 C           -1.26818723        0.79088671        4.40482242
 C            0.77855592        1.95808224        3.75288097
 C            2.80346826        0.54317239        3.91722467
 C            2.15617792        1.65474803        3.38514692
 C            3.01986481       -1.67211624        3.18137244
 C            3.55461296       -0.32371678        3.03502081
 C            2.54986442       -2.08492933        1.87359351
 C            0.26308167       -2.11322699        2.67664687
 C            1.18999913       -2.28299065        1.63577644
 C           -1.87363061       -1.12599917        3.23172001
 C           -1.08688228       -1.90333483        2.37407477
 C           -1.88010947        1.17546911        3.14097828
 C           -2.57496868        0.00136650        2.66070544
 C            0.09001746        2.43419916        2.55761350
 C           -1.16894085        1.94031290        2.21750085
 C            2.32232291        1.99254974        1.97657408
 C            1.08590747        2.60445433        1.51805402
 C            3.58421360       -0.03506382        1.61433615
 C            3.28664903       -1.28190638        0.93181673
 C            3.01336011        1.13921008        1.11527154
 C            2.80300575       -1.18140486       -0.35407215
 C            0.75208379       -2.25676155        0.30458608
 C            1.65024150       -1.88770072       -0.70490770
 C           -1.52713106       -2.01388054        1.05288750
 C           -0.61104178       -2.28502516        0.02844669
 C           -2.85798320       -0.07884414        1.31613454
 C           -2.69094999       -1.32089653        0.73003564
 C           -1.53628199        1.86230043        0.86717590
 C           -2.60280147        1.02999757        0.51540323
 C            0.71375744        2.43041518        0.19494828
 C           -0.63337550        2.26268934       -0.12373304
 C            2.71358194        1.17278033       -0.24972198
 C            3.01240387        0.02878737       -0.98397110
 C            1.67640019        1.99658126       -0.70834730
 C            2.80270568        0.05183906       -2.34313319
 C            1.20837522       -1.75849217       -2.02834027
 C            2.04949422       -1.05508059       -2.89307769
 C           -1.05097915       -2.24487053       -1.30136737
 C           -0.16369690       -1.84567727       -2.31694261
 C           -3.21795067       -1.46972732       -0.53262302
 C           -2.42512468       -2.17504291       -1.51206331
 C           -2.98374431        0.92854274       -0.82200002
 C           -3.63325916       -0.25220663       -1.19080466
 C           -0.98728821        2.12079241       -1.46575122
 C           -2.25894435        1.63217284       -1.78784417
 C            1.35234090        1.96665268       -2.06407485
 C            2.19212086        1.23265061       -2.89800099
 C            0.01805307        2.16787923       -2.44052896
 C            1.56368317       -0.60583350       -4.17616948
 C            1.74262379        0.84313286       -4.21703242
 C           -0.64591908       -1.49646736       -3.60126655
 C            0.19372196       -0.87363688       -4.52609728
 C           -2.94492711       -1.77519373       -2.80236535
 C           -3.77676513       -0.59439801       -2.58606182
 C           -2.01624110       -1.44999552       -3.85351403
 C           -2.65564685        1.55524758       -3.12435792
 C           -3.40354062        0.39370469       -3.57032563
 C           -2.57168867       -0.29085777       -4.53746946
 C           -0.32602610        2.14585917       -3.79266907
 C            0.51793824        1.41862767       -4.72053379
 C           -0.27525746        0.31457166       -5.22203832
 C           -1.69381702        1.84734053       -4.16913262
 C           -1.66090085        0.69790159       -5.07106830
