   70
C70 / DATE: 7/ 1/2024 / Origin: Program Fullerene / C70 from database
 C            1.70216838        0.03758748        4.69361145
 C            0.86228568       -1.13751313        4.54377374
 C            1.34643221       -1.89134536        3.39820736
 C            2.69459012        0.00060265        3.63887749
 C            2.60070994       -1.28842902        2.98018779
 C            2.53305356        1.18333726        2.81187686
 C            0.86704207        1.20003059        4.46390986
 C            1.32194434        1.85330414        3.24475299
 C           -0.51740340       -0.69434139        4.54749648
 C           -0.51435380        0.76555156        4.53778661
 C           -1.42435207       -1.37737610        3.74750691
 C            0.43863282       -2.30983385        2.42199279
 C           -0.92505016       -2.26327415        2.70049237
 C            0.87462575       -2.43650182        1.09748139
 C            2.92062186       -1.33232039        1.63373886
 C            2.22949558       -2.23390159        0.83227890
 C            2.76885994        1.03525206        1.45297132
 C            3.36246969       -0.15195912        1.04040189
 C            1.96205492        1.71528051        0.53831662
 C            0.37605914        2.23127697        2.29536058
 C            0.69279167        2.15170168        0.93408084
 C           -1.44175131        1.43742581        3.75496712
 C           -0.95851552        2.30113048        2.68554420
 C           -2.57295916       -0.67118834        3.20930079
 C           -2.59228198        0.71903120        3.23669440
 C           -1.87437706       -2.23133779        1.60476070
 C           -2.97578714       -1.36961005        2.00015870
 C           -0.04921844       -2.38449187        0.04050437
 C           -1.40542409       -2.18271272        0.29543307
 C            0.40100613       -2.40593044       -1.28087499
 C            2.70630333       -2.43147748       -0.45591858
 C            1.75340930       -2.61962023       -1.53386504
 C            3.81766895       -0.22220344       -0.26387781
 C            3.71738606       -1.50540348       -0.93301843
 C            2.25780981        1.58500927       -0.82248126
 C            3.33866887        0.78147457       -1.19666583
 C            1.31741302        1.96544956       -1.78325177
 C           -0.29368677        2.38352437       -0.03087046
 C            0.05163763        2.40160579       -1.38357149
 C           -1.99492835        2.36423561        1.67733919
 C           -3.05495726        1.44897734        2.06968850
 C           -1.64392933        2.44281848        0.33663390
 C           -3.66401623       -0.68298038        1.01300666
 C           -3.74211907        0.77215832        1.07264263
 C           -2.23599106       -1.69305840       -0.71584440
 C           -3.41850672       -1.03631964       -0.37351719
 C           -0.43755962       -1.96329667       -2.30846185
 C           -1.74324597       -1.56263896       -2.01614662
 C            0.09017554       -1.71082644       -3.57672493
 C            2.35562053       -2.08718327       -2.74649656
 C            3.47422457       -1.25472159       -2.33864416
 C            3.37891107        0.18542426       -2.52115685
 C            1.52869127       -1.61794225       -3.75334740
 C            1.56825722        1.70159795       -3.13229001
 C            2.52000809        0.66501454       -3.49449604
 C            1.80574618       -0.30275469       -4.31098405
 C           -0.50538092       -0.67735799       -4.40707525
 C            0.46178862        1.60533836       -4.06890586
 C            0.53987519        0.29237862       -4.69097211
 C           -0.94969908        2.59431932       -2.33557829
 C           -0.78353915        2.07016162       -3.68174086
 C           -2.62614960        2.17010257       -0.61326407
 C           -3.63261984        1.25772575       -0.29305083
 C           -3.83571754        0.10767052       -1.15652213
 C           -2.33441975        2.38192124       -1.95300678
 C           -2.45568565       -0.79601465       -2.94350244
 C           -1.76104349       -0.20029394       -4.07176119
 C           -1.94195184        1.23934800       -3.96609798
 C           -3.40639591        0.19491469       -2.46799382
 C           -2.92542178        1.48347751       -2.92979998
