   70
C70 / DATE: 7/ 1/2024 / Origin: Program Fullerene / C70 from database
 C            1.24937506        0.12271133        4.68684704
 C            2.50425961       -0.00918381        3.98042210
 C            2.49861269       -1.30254874        3.31596825
 C            0.43454736       -1.03789292        4.35513194
 C            1.14826743       -1.81797058        3.36391831
 C           -0.89376379       -0.56629589        4.02864794
 C            0.44937989        1.30728643        4.45628960
 C           -0.91250484        0.87414309        4.20429624
 C            0.82003904        2.21907658        3.38777232
 C            2.87046802        0.98448971        2.98339267
 C            2.02053347        2.05588153        2.69402183
 C            3.11239467       -1.12585876        2.01976803
 C            3.50320852        0.26303986        1.88971442
 C            2.54368078       -1.73115787        0.91265458
 C            0.50635755       -2.13404780        2.16812516
 C            1.25207264       -2.27347436        0.99505121
 C           -1.53512766       -1.07526216        2.90953909
 C           -0.87814979       -1.99190677        2.07953210
 C           -2.53178418       -0.29340001        2.34613926
 C           -1.45310321        1.68375600        3.12057403
 C           -0.38922981        2.54828944        2.64430208
 C           -2.27248656        1.06493817        2.18473154
 C           -0.28880174        2.81974132        1.28258686
 C            2.15735140        2.69561876        1.46738815
 C            0.96305008        3.15754274        0.77437871
 C            3.50069765        0.82206137        0.61556440
 C            3.04838222        2.13234951        0.46683431
 C            3.02537464       -1.34810591       -0.32974066
 C            3.48201051       -0.02965855       -0.49456467
 C            2.63847561       -2.11326493       -1.42002266
 C            0.60524115       -2.67883057       -0.17851018
 C            1.34904529       -2.77557580       -1.35763053
 C           -1.53693748       -2.41464212        0.92173290
 C           -0.79419614       -2.62999881       -0.25013726
 C           -3.37748275       -0.91081646        1.44644831
 C           -2.89974056       -2.13492919        0.83405873
 C           -3.94413291       -0.11381636        0.37959529
 C           -2.35552599        1.60631035        0.90218978
 C           -1.28772284        2.37030586        0.40910177
 C           -3.29231681        1.06685685        0.01698684
 C           -1.09273922        2.48508393       -0.97120820
 C            1.21151759        3.05342197       -0.65257322
 C            2.57685106        2.58838584       -0.83112299
 C            0.20393716        2.56618040       -1.47545926
 C            3.52271797        0.55080967       -1.76184108
 C            2.88514019        1.83884284       -1.95328821
 C            2.83462993       -1.61809710       -2.76614099
 C            3.24478450       -0.24432806       -2.94157454
 C            0.68829949       -2.56302221       -2.63278752
 C            1.58992357       -1.80846047       -3.48762145
 C           -1.41266640       -2.56477996       -1.51069609
 C           -0.65305273       -2.21831904       -2.62244201
 C           -3.58604988       -2.27336177       -0.43153505
 C           -4.37083652       -1.06330865       -0.63260096
 C           -2.79568440       -2.48021306       -1.62009370
 C           -4.27200937       -0.69754839       -2.02781853
 C           -3.35128246       -1.63060439       -2.65932004
 C           -3.30400400        1.49876790       -1.30794073
 C           -2.12425737        2.15301440       -1.83924969
 C           -3.83762472        0.64404250       -2.35782745
 C           -1.07924492       -1.16001659       -3.42755758
 C           -2.43458497       -0.86187356       -3.48260559
 C           -1.78484321        1.50816920       -3.09678369
 C           -2.82106629        0.53265718       -3.38834829
 C            0.53073531        1.88851595       -2.65481369
 C            1.86626263        1.65331876       -2.97042182
 C            2.20443807        0.44230334       -3.69379886
 C            1.14858032       -0.51320703       -3.97074969
 C           -0.45663037        1.15618564       -3.31389355
 C           -0.17105917       -0.14831974       -3.73098537
