   70
C70 / DATE: 7/ 1/2024 / Origin: Program Fullerene / C70 from database
 C            1.04027124       -0.10522189        4.89079675
 C            2.29192391       -0.29912939        4.18227121
 C            2.21813025       -1.58212752        3.50909726
 C            0.18794557       -1.25157265        4.60941412
 C            0.85525210       -2.06075714        3.60825250
 C           -1.14068076       -0.75985965        4.32665357
 C            0.26491159        1.09536169        4.63672508
 C           -1.11049762        0.69125610        4.41083530
 C            0.80058737        2.10731261        3.84937056
 C            2.71307249        0.68852024        3.20238579
 C            2.06376524        1.90831125        3.14106480
 C            2.77619883       -1.41686015        2.18363826
 C            3.02401563       -0.00431031        1.96268924
 C            2.21261288       -2.12043335        1.13808981
 C            0.19985895       -2.40241413        2.42514267
 C            0.98149641       -2.75896804        1.32473228
 C           -1.75192773       -1.10846132        3.06085125
 C           -1.11483922       -1.98560210        2.18822443
 C           -1.82178399        1.21728036        3.25531154
 C           -2.34631477        0.09288854        2.50757774
 C           -0.07340030        2.84426789        2.95279332
 C           -1.28877876        2.28515677        2.54655541
 C            1.94726155        2.57200362        1.85587309
 C            0.79438650        3.44557240        1.95568848
 C            2.66338916        0.55327942        0.72627137
 C            2.15737764        1.85539243        0.67209809
 C            2.51688883       -1.68118334       -0.13771640
 C            2.49522858       -0.30255046       -0.37015149
 C            2.22369009       -2.55355385       -1.16613738
 C            0.34753624       -3.27562165        0.19286774
 C            1.15731190       -3.50173788       -0.91990575
 C           -1.58640873       -2.04569692        0.88163521
 C           -1.00345531       -2.95633842        0.00725992
 C           -2.44414932        0.19650823        1.12488604
 C           -2.29106381       -0.95467300        0.35848484
 C           -1.72358870        2.50588506        1.23967195
 C           -2.28055353        1.43899372        0.51038502
 C            0.22357766        3.89024290        0.78281249
 C           -1.17768750        3.59344992        0.56759645
 C            1.60567903        2.34582639       -0.51655172
 C            0.87664465        3.53641613       -0.45906728
 C            1.96557066        0.18999991       -1.57123961
 C            1.49185741        1.50946268       -1.63940551
 C            2.03751062       -2.03450492       -2.49920681
 C            1.82912513       -0.67057843       -2.66934939
 C            0.56503276       -3.83812891       -2.19651381
 C            1.17818524       -2.97697148       -3.19706627
 C           -1.61397505       -3.14309117       -1.23070530
 C           -0.86743719       -3.72662114       -2.32891339
 C           -2.54455217       -0.89266641       -1.00934615
 C           -2.42274399       -2.06019655       -1.76227378
 C           -2.43755856        1.52516042       -0.88161857
 C           -2.58709534        0.35518658       -1.64033340
 C           -1.40998003        3.74653140       -0.84826330
 C           -0.09878469        3.82475067       -1.48290588
 C           -2.14731546        2.71696918       -1.54299314
 C            0.79215968        1.95369918       -2.77640346
 C           -0.14531712        2.97263431       -2.64204996
 C           -1.54531200        2.65112844       -2.85721456
 C            1.15525923       -0.24389285       -3.80753335
 C            0.60534399        1.09303508       -3.85101559
 C            0.12545164       -2.45918823       -4.04738354
 C           -1.14337388       -2.94578761       -3.52196665
 C           -2.19000823       -1.98771419       -3.19533419
 C            0.20637084       -1.13874663       -4.46537204
 C           -2.51649988        0.43296756       -3.03527254
 C           -1.83078081        1.55793046       -3.65123314
 C           -0.73259863        0.99894152       -4.41589612
 C           -2.17322725       -0.74683617       -3.81180872
 C           -1.02919117       -0.40032521       -4.63985537
