   70
C70 / DATE: 7/ 1/2024 / Origin: Program Fullerene / C70 from database
 C            1.34493757       -0.22460896        4.51995639
 C            2.62917076       -0.46935601        3.89312187
 C            2.58388690       -1.78608793        3.27797303
 C            0.50581267       -1.39005109        4.29226894
 C            1.27776606       -2.36263404        3.54034341
 C           -0.76444818       -0.93193090        3.75224241
 C            0.58895835        0.95292134        4.13160531
 C           -0.73626450        0.51940105        3.72757024
 C            1.21320436        1.95955603        3.40903066
 C            3.11413100        0.47166754        2.89906208
 C            2.50643847        1.71308662        2.77780280
 C            3.03030080       -1.65514492        1.90005436
 C            3.42929896       -0.27447673        1.69434386
 C            2.33068931       -2.31113824        0.88667399
 C            0.64770240       -3.06099497        2.52213660
 C            1.31241341       -3.19386908        1.23436453
 C           -1.33852729       -1.61180123        2.67758591
 C           -0.75666452       -2.79951109        2.24425946
 C           -2.19803554       -0.92043579        1.81756757
 C           -1.39182227        1.16707136        2.68897528
 C           -2.35964301        0.45945216        1.99097666
 C            0.42275942        2.75162623        2.48329612
 C           -0.85351255        2.32645570        2.11742882
 C            2.48418432        2.35876243        1.47711925
 C            1.32648399        3.23173840        1.45587277
 C            3.20054419        0.29181842        0.44739595
 C            2.80322233        1.62956031        0.33258177
 C            2.36799937       -1.79072142       -0.41108959
 C            3.00523906       -0.56300127       -0.62764813
 C            1.56218792       -2.35378700       -1.41237611
 C            0.28283844       -3.50516707        0.26343047
 C           -1.00739206       -3.25925648        0.89318552
 C            0.45374293       -3.12934070       -1.06241014
 C           -2.67466931       -1.54623551        0.65561781
 C           -2.00772687       -2.66019982        0.13902430
 C           -3.63611665       -0.90892310       -0.12650211
 C           -3.20158026        1.17388520        1.15635188
 C           -3.97983360        0.46687900        0.16340126
 C           -1.43780541        2.85519147        0.95962056
 C           -2.68493250        2.38622285        0.55154454
 C            0.79884741        3.60033783        0.23093647
 C           -0.63880785        3.51846985        0.02869375
 C            2.40717752        2.12246278       -0.91709546
 C            1.43774867        3.12274523       -0.98486482
 C            3.05888263       -0.01922561       -1.89937203
 C            2.66418883        1.36681041       -2.05934053
 C            1.70092301       -1.92607034       -2.73150994
 C            2.52998692       -0.77373846       -3.01401991
 C            0.52410905       -1.83270629       -3.57882751
 C           -0.68258788       -3.10253373       -1.86784151
 C           -1.96984334       -2.85720184       -1.23953375
 C           -0.66213066       -2.40425826       -3.14156694
 C           -3.58740186       -1.04914430       -1.57201783
 C           -2.74824728       -2.00669795       -2.12335073
 C           -1.91423856       -1.67232039       -3.26892022
 C           -3.90748468        1.22057284       -1.07763853
 C           -2.99508785        2.33143327       -0.86964604
 C           -3.64249184        0.28495892       -2.15206434
 C           -0.87100140        3.30592704       -1.39169682
 C            0.41845488        3.06018632       -2.02107626
 C           -1.98676929        2.58234907       -1.79760375
 C            1.73584751        1.42983426       -3.17879605
 C            1.76366839        0.13979046       -3.84569887
 C            0.51014958       -0.50643256       -4.17893557
 C            0.52624762        2.10342701       -3.02419804
 C           -1.91139203       -0.37507896       -3.76957995
 C           -2.73771759        0.64359549       -3.14268293
 C           -1.92475136        1.84238390       -2.97867316
 C           -0.65629551        0.24692523       -4.15860232
 C           -0.63492151        1.59657602       -3.60823672
