   70
C70 / DATE: 7/ 1/2024 / Origin: Program Fullerene / C70 from database
 C            1.16395971        0.09541331        4.74332134
 C            2.43219520        0.01642349        4.05109588
 C            2.51530150       -1.31402221        3.48265938
 C            0.36049962       -1.04128590        4.30636129
 C            1.17030349       -1.83266905        3.40018703
 C           -0.90597987       -0.52556703        3.83182194
 C            0.36514799        1.28830900        4.56207611
 C           -0.98513974        0.85854017        4.24784918
 C            0.74645142        2.23446762        3.52768755
 C            2.70730951        0.95700751        2.97391586
 C            1.74284320        1.88968190        2.61137003
 C            3.25006788       -1.19895902        2.24810840
 C            3.39087594        0.21602766        1.93600761
 C            2.90605490       -2.02748657        1.19486103
 C            0.67463055       -2.15134838        2.13739051
 C            1.57651798       -2.48462499        1.11898906
 C           -1.32833484       -0.84687883        2.54800461
 C           -0.63803045       -1.80421269        1.79898751
 C           -2.23390727       -0.00504320        1.90481930
 C           -1.52697273        1.81952952        3.30654267
 C           -0.49230381        2.80550249        3.04103763
 C           -2.27116626        1.35806289        2.22804397
 C           -0.49023066        3.42078634        1.80005126
 C            1.59846361        2.24435359        1.26520373
 C            0.64862565        3.20094294        0.91983196
 C            3.24593469        0.59515441        0.60171667
 C            2.21206012        1.48035615        0.26044629
 C            3.56466053       -1.73996536        0.01343895
 C            3.67664780       -0.33447226       -0.34057986
 C            3.21286333       -2.47878950       -1.17068737
 C            1.06520720       -2.93436940       -0.10483260
 C            1.92882594       -3.13489285       -1.18432485
 C           -1.13068794       -2.15506756        0.54219031
 C           -0.31061076       -2.87029945       -0.33868775
 C           -2.82773549       -0.44065573        0.72404125
 C           -2.32731320       -1.58025016        0.09200685
 C           -3.63524636        0.44692588        0.01318941
 C           -2.58258876        2.27321910        1.22744314
 C           -1.68083990        3.30878115        0.97530320
 C           -3.44423575        1.87076425        0.21637933
 C            0.16223121        3.26217266       -0.44642729
 C           -1.25768679        3.56897766       -0.38884799
 C            1.69342454        1.49656160       -1.05031885
 C            0.61792097        2.33480359       -1.37469659
 C            3.26364576       -0.20560594       -1.71907931
 C            3.23221379       -1.54642743       -2.28218711
 C            2.24652360        0.67987462       -2.04298463
 C            1.42211011       -3.01191962       -2.53980240
 C            2.13694450       -1.90520593       -3.16476101
 C           -0.80033981       -3.26611942       -1.58183113
 C            0.05815291       -3.14622881       -2.74550412
 C           -2.87662250       -1.97083362       -1.12490868
 C           -2.12763886       -2.85749943       -1.98931152
 C           -3.88690820        0.22905364       -1.40321794
 C           -3.47775422       -0.96301682       -1.97701993
 C           -3.32068100        2.48648353       -1.09250802
 C           -2.07756172        3.15622892       -1.42710155
 C           -3.56879527        1.46356958       -2.09339708
 C           -0.14101492        2.09702356       -2.52555432
 C           -1.48872320        2.44501304       -2.54853370
 C           -2.45668363        1.46730068       -3.02568779
 C            1.54616879        0.47064963       -3.22776364
 C            1.41389449       -0.87994766       -3.75786239
 C            0.29075802        1.15450101       -3.44544923
 C           -0.61581542       -2.25923558       -3.68027102
 C           -2.01021725       -2.20730504       -3.28870051
 C           -2.67648961       -0.91990203       -3.19157747
 C           -1.99227670        0.25253027       -3.52637773
 C            0.01484012       -1.09222300       -4.09100821
 C           -0.66774370        0.18733712       -3.96057667
