   70
C70 / DATE: 7/ 1/2024 / Origin: Program Fullerene / C70 from database
 C            1.42412685       -0.05257756        4.51449596
 C            0.64513496       -1.23237664        4.18321900
 C            1.49366764       -2.09565776        3.40528191
 C            2.59127356       -0.04167039        3.64794545
 C            2.68805965       -1.34476927        3.04919275
 C            2.48707771        1.09729916        2.76576859
 C            0.62404383        1.10446031        4.17558587
 C            1.39102380        1.91633646        3.25346507
 C           -0.59567957       -0.80110489        3.58468054
 C           -0.67615524        0.64272703        3.73056014
 C           -0.99505923       -1.37064450        2.37898367
 C            0.93053521       -2.87289119        2.40254413
 C           -0.29272042       -2.45933256        1.82993845
 C            1.86086691       -3.51077628        1.59474126
 C            3.12396057       -1.45489155        1.73663189
 C            3.03681127       -2.74019479        1.21981583
 C            2.62335947        0.91506722        1.38565110
 C            2.93326732       -0.35921699        0.86578544
 C            2.10278245        1.90666330        0.54113926
 C            0.68636812        2.65116239        2.31875511
 C            1.31194237        2.91480879        1.10902743
 C           -1.29749409        1.37295247        2.72626560
 C           -0.70666776        2.57041504        2.32757579
 C           -1.89285514       -0.66511079        1.58400668
 C           -2.10729506        0.70215788        1.81205617
 C           -2.41943241       -1.27644670        0.45545884
 C           -0.69901649       -2.96908375        0.57888676
 C           -1.71302836       -2.32267508       -0.14320952
 C            1.40668561       -4.22576921        0.43351894
 C            0.11500070       -3.87475314       -0.10932907
 C            3.27190407       -2.94871143       -0.18436033
 C            2.40356583       -4.03314433       -0.60684903
 C            2.81573291       -0.57305908       -0.51999955
 C            3.05916583       -1.82852546       -1.06966171
 C            2.04720799        1.67360860       -0.83529827
 C            2.16548653        0.37368780       -1.30523898
 C            1.54458499        2.64717253       -1.68823458
 C            0.74548597        3.89543988        0.30541247
 C            0.95223882        3.84236373       -1.12459039
 C           -1.40814547        3.38074161        1.44497250
 C           -0.64865630        4.22746403        0.53810431
 C           -2.84459793        1.45764049        0.89457789
 C           -2.50511437        2.79657670        0.69042618
 C           -3.43332401       -0.63111518       -0.23993857
 C           -3.56300861        0.80660138       -0.10286023
 C           -3.65354889       -0.95890349       -1.63316938
 C           -1.73131130       -2.46709534       -1.53716128
 C           -2.69465496       -1.81480840       -2.29531016
 C            0.28544991       -3.70584684       -1.54195935
 C            1.70683086       -3.59251568       -1.79603514
 C            2.21392736       -2.28421125       -2.16069516
 C           -0.54574847       -2.80123212       -2.17519879
 C            1.47434048       -0.02656237       -2.45827688
 C            1.31021229       -1.38654659       -2.71338347
 C            0.03144162       -1.84968807       -3.01697662
 C            0.71605372        2.23233704       -2.80361623
 C            0.65251043        0.88229657       -3.13260346
 C           -0.33383370        4.05641876       -1.77259687
 C           -1.32852209        4.24119212       -0.74498396
 C           -2.42668182        3.29919723       -0.67371067
 C           -0.52619544        2.98392270       -2.72331278
 C           -3.55443057        1.37187707       -1.44261055
 C           -3.73539176        0.28719809       -2.38167856
 C           -2.66600132        2.41025252       -1.71964316
 C           -1.73067682        2.28290553       -2.76895235
 C           -2.25035259       -1.13297971       -3.49769278
 C           -0.81817516       -1.00431835       -3.71783918
 C           -0.50302420        0.41439961       -3.76149823
 C           -2.83048713        0.19824503       -3.50095468
 C           -1.74484093        1.15361764       -3.58504108
