   70
C70 / DATE: 7/ 1/2024 / Origin: Program Fullerene / C70 from database
 C            1.25730110       -0.04265648        4.36327832
 C            2.51488541       -0.24556379        3.68466685
 C            2.55673918       -1.63345761        3.26924989
 C            0.44334661       -1.23738198        4.16343706
 C            1.20016754       -2.14705452        3.34075884
 C           -0.85027381       -0.79674442        3.69486020
 C            0.43683531        1.08639535        3.97898724
 C           -0.92833947        0.61054587        4.03603808
 C            0.80835908        1.89623733        2.90328760
 C            2.80911680        0.55989595        2.51796293
 C            1.93120269        1.56652325        2.12305912
 C            3.23477096       -1.68910892        1.98781932
 C            3.35038663       -0.32318294        1.49808579
 C            2.83030631       -2.66665645        1.09741782
 C            0.63560546       -2.66523434        2.17959165
 C            1.51349439       -3.26072297        1.28466419
 C           -1.30623511       -1.20726657        2.44128510
 C           -0.58938065       -2.16397135        1.70163811
 C           -2.28748632       -0.43636552        1.81223806
 C           -1.89595809        1.37150135        3.41447160
 C           -2.75331245        0.71412292        2.44907465
 C           -0.15874544        2.76524431        2.38289083
 C           -1.48720263        2.61641583        2.78894375
 C            0.13555923        3.51926283        1.24709786
 C            2.02112992        2.03535899        0.81480550
 C            1.30065782        3.16805205        0.45998541
 C            3.06785451       -0.04299075        0.16053657
 C            2.60014637        1.22785224       -0.17097242
 C            2.95790871       -2.40496690       -0.32014273
 C            2.96282085       -1.08716772       -0.77127669
 C            1.03686102       -3.66548990       -0.01535460
 C            2.09294222       -3.36444940       -0.97061582
 C           -1.03199858       -2.51058921        0.41249668
 C           -0.27943115       -3.40530502       -0.36946752
 C           -2.57126560       -0.65325328        0.46395313
 C           -2.12330857       -1.82413461       -0.14111601
 C           -3.15150680        0.35378219       -0.32561194
 C           -3.35172967        1.77031702        1.66156107
 C           -2.56268772        2.97543432        1.88234888
 C           -3.47340323        1.58312409        0.23528964
 C           -0.92453358        3.90532874        0.32254276
 C           -2.23731024        3.53703302        0.58576547
 C           -2.98711411        2.78859953       -0.41041632
 C            1.00124840        3.43158122       -0.93671589
 C           -0.40337532        3.79367938       -1.03096715
 C            2.47695603        1.56514788       -1.51187683
 C            1.57685174        2.63187694       -1.91294663
 C            2.55980943       -0.81753380       -2.08713173
 C            2.37094108        0.50143316       -2.49034354
 C            1.73778750       -3.14384921       -2.28870009
 C            1.98528070       -1.82889494       -2.86311036
 C           -0.62861411       -3.64942922       -1.69473080
 C            0.41116833       -3.55943781       -2.70660365
 C           -2.53278901       -2.07926808       -1.44466044
 C           -1.81724933       -3.04572299       -2.24565376
 C           -3.03844144        0.28578529       -1.71284316
 C           -2.82993061       -0.95107299       -2.30318477
 C           -2.49997658        2.68986312       -1.70773331
 C           -1.19464808        3.24407172       -2.03485413
 C           -2.62478002        1.42091255       -2.40841558
 C            0.77050271        2.14078310       -3.02021598
 C            1.25038632        0.81579933       -3.36447962
 C           -0.59027469        2.39535695       -3.05216056
 C           -1.50889286        1.30649545       -3.33439328
 C            0.85763860       -1.49969386       -3.72433896
 C           -0.04441718       -2.63397350       -3.72698165
 C           -1.44857661       -2.39708445       -3.49826953
 C           -1.91063024       -1.02869744       -3.42379652
 C            0.35659746       -0.19807537       -3.70329727
 C           -1.02974711        0.03263504       -3.63671075
