   70
C70 / DATE: 7/ 1/2024 / Origin: Program Fullerene / C70 from database
 C            1.57048001       -0.02598111        4.77906371
 C            0.76887477       -1.21565045        4.56512586
 C            1.43008268       -2.02987886        3.56285819
 C            2.68340785       -0.06913053        3.84653093
 C            2.58505273       -1.28566725        3.07792506
 C            2.69465184        1.17612297        3.12592597
 C            0.75107075        1.12351703        4.43191875
 C            1.48153202        1.90481869        3.46461339
 C           -0.59056479       -0.79117258        4.31190831
 C           -0.55872942        0.64243094        4.06187165
 C           -1.37181046       -1.58196590        3.48545624
 C            0.65644803       -2.73055086        2.63954693
 C           -0.73818294       -2.63255684        2.69452497
 C            1.26300747       -3.11317810        1.44745075
 C            2.82455758       -1.24818014        1.70590131
 C            2.41370291       -2.35599661        0.97468797
 C            3.07952870        1.18308224        1.79358531
 C            3.00433268       -0.01417980        1.05005504
 C            2.85023141        2.38375055        1.14039160
 C            0.79320534        2.52019299        2.42271640
 C            1.58910474        3.05485447        1.41468024
 C           -1.16488651        1.13539194        2.90810715
 C           -0.49695761        2.07038126        2.09308939
 C           -2.34863616       -0.93563605        2.62973366
 C           -2.25797499        0.43507799        2.39806208
 C           -1.53052298       -2.80169992        1.48080983
 C           -2.59995335       -1.82273664        1.50692031
 C            0.44763974       -3.43287982        0.28903623
 C           -0.89803952       -3.07416016        0.27602103
 C            2.32573711       -2.27807912       -0.46816447
 C            1.26862076       -3.18294557       -0.88187676
 C            2.94696209        0.03851056       -0.35820305
 C            2.44444145       -1.04107337       -1.08611953
 C            3.10514783        2.47174135       -0.27273049
 C            3.16791265        1.23874500       -1.02177314
 C            0.99897881        3.40096483        0.13810309
 C            2.04769051        3.28346057       -0.84840281
 C           -1.06819507        2.43999543        0.86642455
 C           -0.26544064        2.91793425       -0.17031217
 C           -2.95538061        0.96176828        1.32205945
 C           -2.37600934        2.07223074        0.59280635
 C           -3.03951070       -1.26808327        0.31286332
 C           -3.50476402        0.04413225        0.34020693
 C           -1.49212376       -2.66701161       -0.92189858
 C           -2.60457698       -1.81198454       -0.89860789
 C            0.64250762       -2.95609558       -2.09211878
 C           -0.80646991       -2.88915641       -2.11574692
 C            1.88142893       -0.84777601       -2.35689454
 C            1.12120976       -1.87084385       -2.92739799
 C            2.48838277        1.48041724       -2.27886402
 C            1.70829043        2.69878705       -2.11903995
 C            1.89575239        0.41810272       -2.95685204
 C           -0.61798249        2.67627797       -1.51142608
 C            0.37906851        2.65692716       -2.50658807
 C           -2.81360884        1.96906633       -0.78808278
 C           -3.64766539        0.77829743       -0.89949592
 C           -1.93259680        2.28573686       -1.82025139
 C           -3.10581052       -1.28088184       -2.08966724
 C           -3.64752158        0.07066808       -2.08997056
 C           -1.17570091       -2.15922811       -3.31342534
 C            0.03992747       -1.54132376       -3.83741324
 C           -2.37851397       -1.46879123       -3.33392565
 C            0.91127398        0.74427218       -3.89478001
 C            0.14317701        1.95883870       -3.67846912
 C           -0.00289927       -0.27028227       -4.38940123
 C           -2.26069111        1.87017321       -3.11219552
 C           -3.16128737        0.74213365       -3.27826577
 C           -2.49030688       -0.24504550       -4.10679612
 C           -1.21442768        1.72131713       -4.09632491
 C           -1.28567878        0.36968361       -4.62949989
