   70
C70 / DATE: 7/ 1/2024 / Origin: Program Fullerene / C70 from database
 C            1.26114603        0.15638645        4.84638855
 C            0.50877859       -1.07526537        4.68399553
 C            1.41559782       -2.07925778        4.18005040
 C            2.53986613       -0.02163950        4.18091442
 C            2.67854599       -1.42335361        3.86446729
 C            2.61031581        0.93712249        3.09783479
 C            0.54239727        1.20743957        4.14620916
 C            1.42845792        1.77537299        3.15343989
 C           -0.67714344       -0.76925845        3.91023320
 C           -0.71603069        0.66274104        3.68490928
 C           -1.06256176       -1.59540097        2.85919406
 C            1.02366678       -2.84015735        3.00910223
 C           -0.21852457       -2.62704282        2.40944962
 C            3.02838119       -1.79583925        2.50622781
 C            2.19481304       -2.92965548        2.15966982
 C            3.05984622        0.54502926        1.84154572
 C            3.25458361       -0.81511571        1.53897858
 C            2.85058577        1.43343432        0.79275800
 C            0.88015746        2.19130902        1.94506070
 C            1.71220920        2.25300552        0.82892352
 C           -1.21539755        1.10579018        2.46538246
 C           -0.49554400        2.05897004        1.73848162
 C           -2.03335858       -1.10257770        1.99155018
 C           -2.10215405        0.27858788        1.77641109
 C           -2.54557267       -1.96781387        1.04177940
 C           -0.43473541       -3.17860707        1.14153576
 C           -1.67194176       -3.00329301        0.53117387
 C            2.01048246       -3.22401804        0.81860280
 C            0.66355433       -3.48024907        0.33460504
 C            3.30378822       -1.21601766        0.19703903
 C            2.67646522       -2.40369150       -0.18150220
 C            3.44939923        1.13323534       -0.41858063
 C            3.54717179       -0.26187474       -0.78644495
 C            3.07923844        1.87872652       -1.60014285
 C            1.19657627        2.80568046       -0.34571907
 C            1.94830819        2.77470785       -1.51879625
 C           -1.02696230        2.49741879        0.52851324
 C           -0.17411454        3.06102024       -0.42581730
 C           -2.71281357        0.78084404        0.62520034
 C           -2.27445221        2.01316238        0.13421500
 C           -3.30683178       -1.43800662       -0.07086994
 C           -3.48604014       -0.06455373       -0.18060163
 C           -1.73367768       -2.92849589       -0.91896905
 C           -2.93519293       -2.19440450       -1.25746632
 C            0.62949282       -3.12517923       -1.07729382
 C            1.85730742       -2.42109143       -1.38658828
 C           -0.56303070       -2.68465272       -1.62837578
 C            2.88590175       -0.40143860       -2.07489738
 C            2.78693788        0.91689813       -2.65368107
 C            1.81975855       -1.28618650       -2.18780354
 C            1.26008122        2.65811237       -2.78982011
 C            1.53744419        1.31488342       -3.26097498
 C           -0.70368351        3.50457322       -1.63750795
 C           -0.04321200        3.10895527       -2.86961751
 C           -2.92170170        2.60509277       -0.94186366
 C           -2.13402690        3.38693881       -1.87210486
 C           -4.02347763        0.41687321       -1.37240624
 C           -3.84633923        1.81132838       -1.72312818
 C           -2.99633506       -1.55699009       -2.48592126
 C           -3.81597202       -0.36396137       -2.58041320
 C           -0.54256963       -1.66788135       -2.58644732
 C            0.59152593       -0.85129496       -2.71437896
 C            0.48270718        0.40775574       -3.33378714
 C           -1.74433535       -1.28358161       -3.18056463
 C           -1.00178992        2.28823631       -3.58331345
 C           -2.30447051        2.79047145       -3.18813679
 C           -3.41628216        1.86853426       -3.11397497
 C           -3.20811617        0.50769353       -3.56502938
 C           -0.77710598        0.90951014       -3.66752270
 C           -1.84999180        0.03200616       -3.78337905
