   70
C70 / DATE: 7/ 1/2024 / Origin: Program Fullerene / C70 from database
 C            1.29230094       -0.06766846        5.35619596
 C            0.43548788       -1.24037277        5.34766811
 C            1.09120092       -2.26596960        4.55729715
 C            2.47623193       -0.37642599        4.57644247
 C            2.31681547       -1.70662699        4.01299130
 C            2.69906730        0.72958555        3.66719948
 C            0.59378396        1.00135799        4.66433996
 C            1.49136690        1.54370010        3.65821242
 C           -0.79223281       -0.89009658        4.65643274
 C           -0.68861890        0.48984955        4.22354991
 C            0.11072038       -2.79801082        3.63224271
 C           -1.03827505       -1.90264502        3.64310262
 C            0.56221433       -3.26340485        2.40899109
 C            2.60809159       -1.90512933        2.66160455
 C            1.88273983       -2.85604895        1.94207926
 C            3.30380575        0.45360366        2.45395582
 C            3.31938141       -0.92341991        1.97150280
 C            2.97964542        1.29057236        1.31699138
 C            0.95488511        1.93742560        2.43046344
 C            1.79820664        2.02993130        1.32277864
 C           -1.09944249        0.79424974        2.93449151
 C           -0.41303590        1.77077222        2.21364487
 C           -1.58776345       -1.50086315        2.42471348
 C           -1.84501533       -0.14450903        2.22396266
 C           -0.32852138       -3.18516019        1.26892297
 C           -1.41861371       -2.31642951        1.30597534
 C            1.83199422       -2.79268070        0.48502401
 C            0.50168154       -3.20136349        0.08024926
 C            3.27489170       -0.87473898        0.51512788
 C            3.30800405        0.52532647        0.13272580
 C            2.44680856       -1.74494343       -0.19137216
 C            2.70501927        0.89254446       -1.05426630
 C            1.25986123        2.41094218        0.09179557
 C            1.95968191        2.06718669       -1.06339695
 C           -0.95454139        2.15915508        0.99342573
 C           -0.11173689        2.65668162       -0.00203613
 C           -2.39510731        0.26236953        1.01408063
 C           -2.15639663        1.57210766        0.61519181
 C           -1.96794595       -1.90870131        0.08965755
 C           -2.65579747       -0.69473427        0.03360143
 C           -0.03615999       -2.67140415       -1.07832162
 C           -1.39719026       -2.40388427       -1.08042386
 C            1.94507185       -1.34237767       -1.43603996
 C            2.35817789       -0.11296236       -1.94965577
 C            0.78109618       -1.93999375       -1.93995278
 C            1.94183564        0.26901271       -3.21677299
 C            1.50359300        2.53404127       -2.28629010
 C            1.70599230        1.68395671       -3.44624994
 C           -0.66579215        3.01022225       -1.23900213
 C            0.15781831        3.07360637       -2.36503996
 C           -2.79099856        2.04056066       -0.51925352
 C           -2.04759398        2.91880797       -1.40124625
 C           -3.19952407       -0.27723622       -1.18704864
 C           -3.48173092        1.08114300       -1.35712435
 C           -1.98768437       -2.09065044       -2.28990341
 C           -3.05464190       -1.11157381       -2.29769916
 C            0.22494344       -1.48237749       -3.14075670
 C            0.86295069       -0.46564364       -3.85119352
 C           -1.11465208       -1.77239534       -3.40465876
 C            0.55226214        1.81844986       -4.31302195
 C           -0.36876741        2.75119219       -3.68773277
 C            0.08658114        0.48383492       -4.64390266
 C           -2.61741558        2.77355446       -2.73068015
 C           -3.56549308        1.66968278       -2.68448024
 C           -1.73282121        2.55781442       -3.85818393
 C           -3.11910910       -0.57827201       -3.64979697
 C           -1.87565012       -0.93619125       -4.31729735
 C           -1.27432915        0.27918237       -4.82777952
 C           -3.34206989        0.83769360       -3.84685472
 C           -2.19954234        1.37478844       -4.56919707
