   70
C70 / DATE: 7/ 1/2024 / Origin: Program Fullerene / C70 from database
 C            1.63589317       -0.15254434        5.07029983
 C            0.79099366       -1.32204016        5.22975889
 C            1.28266035       -2.34986220        4.33160322
 C            2.62411473       -0.45384154        4.05004476
 C            2.39052256       -1.79772128        3.56713005
 C            2.59516735        0.62126124        3.08706502
 C            0.81006203        0.93086109        4.56362241
 C            1.47242909        1.48774291        3.39954463
 C           -0.54474615       -0.96923212        4.78458211
 C           -0.53818703        0.43185543        4.39649605
 C            0.14369586       -2.87708821        3.60124975
 C           -0.96253557       -1.95097487        3.79367348
 C            0.37291467       -3.36901093        2.32850926
 C            2.42443627       -2.03270178        2.19312799
 C            1.64897730       -3.07246052        1.69621418
 C            2.80368833        0.32612675        1.75241935
 C            2.81231042       -1.00815546        1.31804358
 C            2.45230348        1.30592077        0.83988436
 C            0.68930977        1.94095982        2.33605763
 C            1.28408415        2.03671804        1.07467040
 C           -1.22158368        0.78202053        3.24047624
 C           -0.69608802        1.77440090        2.40555037
 C           -1.67723201       -1.49451271        2.68544703
 C           -2.07588329       -0.16105315        2.67989332
 C           -0.64514674       -3.18037036        1.31111068
 C           -1.58441281       -2.17305774        1.46280771
 C            1.44609063       -3.17742050        0.26952394
 C            0.01551808       -3.31932139        0.03476459
 C            2.85162985       -1.25525051       -0.06518196
 C            2.17302048       -2.36592280       -0.59151977
 C            2.92394346        1.15820602       -0.44742125
 C            3.19407813       -0.19085830       -0.90584135
 C            2.27941110        1.87499618       -1.52286706
 C            0.51112262        2.48392665       -0.00230323
 C            1.03611360        2.45711941       -1.30175331
 C           -1.47542785        2.19288723        1.32720339
 C           -0.84768162        2.73671768        0.20351655
 C           -2.92298796        0.26551455        1.67591336
 C           -2.72964251        1.60745095        1.17264903
 C           -2.16726350       -1.60995540        0.32215152
 C           -3.08083341       -0.58475339        0.51252362
 C           -0.52239833       -2.70578617       -1.08999420
 C           -1.57083781       -1.78408109       -0.94045010
 C            1.74317744       -2.35194019       -1.91581023
 C            0.33060131       -2.58257017       -2.17486837
 C            2.88627388       -0.23531277       -2.32578740
 C            2.50213040        1.10972752       -2.73409820
 C            2.19950226       -1.32547136       -2.83072953
 C            1.62477195        1.28576582       -3.79376936
 C            0.22463717        2.75557508       -2.39883198
 C            0.58809539        2.29646183       -3.67000620
 C           -1.63545933        3.17693226       -0.85980183
 C           -1.04852628        3.27696011       -2.18429207
 C           -3.37492492        1.65101177       -0.11975757
 C           -3.43939558        0.27353501       -0.59448815
 C           -2.97720029        2.62857774       -1.01283634
 C           -1.94419932       -0.96027584       -2.02693686
 C           -2.97456532       -0.01492567       -1.87111931
 C           -0.05634739       -1.76635828       -3.29673942
 C            1.14318344       -1.11776365       -3.80743634
 C            1.01478917        0.12019585       -4.42135225
 C           -1.24479760       -1.05056759       -3.24584122
 C           -0.43791005        1.94292165       -4.63391075
 C           -0.30838010        0.51754331       -4.87155018
 C           -1.46158782       -0.11939584       -4.25897376
 C           -2.10976886        3.01520907       -3.14393475
 C           -3.17553063        2.35469973       -2.42059179
 C           -3.18040887        0.96508402       -2.84100530
 C           -1.82352837        2.19560281       -4.30290752
 C           -2.46623451        0.90206856       -4.09281942
