   70
C70 / DATE: 7/ 1/2024 / Origin: Program Fullerene / C70 from database
 C            1.68077412       -0.01024573        4.50000361
 C            0.86733234       -1.20743295        4.40899341
 C            1.34217706       -2.00239731        3.28578276
 C            2.67078264       -0.07461453        3.44505915
 C            2.49937029       -1.32919137        2.73189461
 C            2.58869452        1.15470787        2.67427216
 C            0.82012864        1.12482929        4.21960705
 C            1.38715628        1.85172152        3.09522021
 C           -0.52177209       -0.79212204        4.40958015
 C           -0.54003764        0.63132770        4.10229053
 C           -1.42899965       -1.61359785        3.76396431
 C            0.39610226       -2.56228272        2.43007777
 C           -0.90628227       -2.67085534        2.91374720
 C            0.63098336       -2.56551604        1.04316035
 C            2.66762093       -1.30165894        1.35832751
 C            1.84829026       -2.08576156        0.54286035
 C            2.85726376        1.07293542        1.31419508
 C            3.24644734       -0.16373276        0.81091119
 C            2.23508875        1.96919118        0.44338289
 C            0.52763716        2.33397738        2.11502974
 C            1.02809918        2.56892577        0.83164714
 C           -1.31603945        1.09375630        3.04176415
 C           -0.84712053        2.17002475        2.28772156
 C           -2.50564010       -1.00037829        3.01263334
 C           -2.33438855        0.28845663        2.52128174
 C           -1.97220340       -3.04570832        2.01687974
 C           -3.00764699       -2.02345626        2.12145062
 C           -0.37973147       -2.94683304        0.14916389
 C           -1.66964610       -3.20538286        0.61483297
 C           -0.20602256       -2.73582595       -1.21948326
 C            2.08352101       -2.06233562       -0.83756750
 C            1.04433395       -2.37810427       -1.72384040
 C            3.66193305       -0.22921950       -0.50249464
 C            3.20387909       -1.35564027       -1.28723798
 C            2.60723474        1.93937581       -0.90427281
 C            3.49058042        0.94829911       -1.33035562
 C            1.85692524        2.63633313       -1.84630701
 C            0.20055151        3.17703125       -0.11591541
 C            0.60632382        3.25166986       -1.44536767
 C           -1.70564718        2.75407532        1.37001946
 C           -1.14182020        3.38724476        0.19225439
 C           -2.96463099        0.66628411        1.33225214
 C           -2.87089638        1.99880602        0.94696271
 C           -3.38060949       -1.64874715        0.77136096
 C           -2.79775886       -2.64669299       -0.10438011
 C           -3.32913805       -0.30935978        0.38869104
 C           -1.33206398       -2.60952162       -2.03711562
 C           -2.61938728       -2.32771580       -1.43534747
 C           -1.25622254       -1.79572375       -3.23395398
 C            1.14883710       -2.07948001       -3.08753750
 C           -0.01267999       -1.55985921       -3.78334298
 C            3.32824856       -0.96388692       -2.67642038
 C            3.45216501        0.48720585       -2.70790693
 C            2.28652836       -1.34247628       -3.59615564
 C            1.66017464        2.08050107       -3.17981780
 C            0.32125210       -0.20972279       -4.19566988
 C            2.43134844        1.00547807       -3.59748823
 C            1.77387081       -0.12991179       -4.21970943
 C           -0.36241702        3.01840396       -2.51068888
 C            0.22903315        2.06808235       -3.43112092
 C           -0.41867111        0.86000294       -3.69227962
 C           -2.13366252        3.29272935       -0.86353422
 C           -3.16134448        2.36464254       -0.42263528
 C           -1.70216723        2.89016809       -2.18809890
 C           -3.32455803       -0.00959603       -0.98082025
 C           -3.01372790       -1.00770073       -1.90143777
 C           -2.16533004       -0.67761846       -3.03820371
 C           -1.70284352        0.63059244       -3.18225685
 C           -3.26225041        1.31163156       -1.40728623
 C           -2.38733190        1.65189541       -2.52122502
