   70
C70 / DATE: 7/ 1/2024 / Origin: Program Fullerene / C70 from database
 C            1.37487644       -0.15289877        4.19984170
 C            2.38825523       -0.31562286        3.17323656
 C            2.16120611       -1.59464720        2.51529148
 C            0.51337918       -1.32142735        4.16665252
 C            0.96981307       -2.18713721        3.09155630
 C           -0.86544651       -0.86688047        4.16069964
 C            0.53471776        1.02739409        4.17204936
 C           -0.85295372        0.58828122        4.12944058
 C            0.93977013        2.11215464        3.40644730
 C            2.76871112        0.77806066        2.40010146
 C            2.14936663        2.01287752        2.59736291
 C            3.42031809        0.53005911        1.19728805
 C            2.38568796       -1.69434982        1.14448895
 C            3.24586520       -0.76743027        0.56020921
 C            1.47394530       -2.39372875        0.34130481
 C            0.03362963       -2.76365780        2.24607855
 C            0.40200500       -3.07518108        0.93917096
 C           -1.78719486       -1.56662415        3.39257205
 C           -1.32123708       -2.66807328        2.56608885
 C           -2.78928267       -0.84661550        2.62014319
 C           -1.77528158        1.27428397        3.34457896
 C           -2.74702002        0.53751997        2.55282618
 C           -0.04197309        2.87343625        2.64872562
 C           -1.35225532        2.42803681        2.56639577
 C            1.99950112        2.93489378        1.48262775
 C            0.61126603        3.36591178        1.45103807
 C            3.43578144        1.54185586        0.15134165
 C            2.64120523        2.68314443        0.27458185
 C            3.20538795       -0.55439447       -0.87346892
 C            3.52464751        0.83839380       -1.12304128
 C            1.53760659       -2.25681140       -1.05375058
 C            2.21052027       -1.17611891       -1.61277087
 C            0.72066984       -3.01924764       -1.87457944
 C           -0.51736235       -3.75849391        0.14929806
 C           -0.30383658       -3.84666001       -1.27973970
 C           -2.31377726       -2.86107910        1.52413366
 C           -3.04025975       -1.60939191        1.40686606
 C           -1.93290464       -3.51040095        0.36249496
 C           -3.08066294       -0.96607689        0.16996121
 C           -2.85352777        1.18645046        1.25837045
 C           -1.99538032        2.35638248        1.26380705
 C           -2.92138645        0.42384804        0.10103454
 C           -0.05982900        3.36019427        0.23139223
 C           -1.27142385        2.67108152        0.11297987
 C            2.12023155        3.28229966       -0.87000348
 C            0.69896879        3.59859970       -0.90562153
 C            3.04404850        1.44046775       -2.27407962
 C            2.49637637        2.77779842       -2.17663463
 C            1.73748738       -0.59157910       -2.79371149
 C            2.18718628        0.67653663       -3.16895554
 C            0.15849733       -2.39694964       -3.05885278
 C            0.62426096       -1.13851141       -3.44263914
 C           -1.56351314       -3.52470399       -1.92975440
 C           -2.46442299       -3.03731636       -0.90236217
 C           -2.96051814       -1.73513021       -0.99415049
 C           -1.27600934       -2.66465645       -3.05836672
 C           -2.97144549       -1.09879754       -2.23637581
 C           -2.15031167       -1.62225507       -3.32327441
 C           -2.55542743        1.01455969       -1.10211654
 C           -1.61865317        2.06074443       -1.10169723
 C           -2.87502181        0.34780083       -2.27505553
 C            0.18693829        3.21040480       -2.20367069
 C            1.32436321        2.84347707       -3.03060969
 C            1.25269564        1.60556593       -3.78348820
 C           -0.96555285        2.43778123       -2.28448221
 C           -0.21934743       -0.29839250       -4.17038233
 C           -1.65419811       -0.49350586       -4.08298962
 C           -2.21696135        0.71639402       -3.50582652
 C           -0.00333922        1.13487387       -4.12781005
 C           -1.16146920        1.70318314       -3.45221671
