   70
C70 / DATE: 7/ 1/2024 / Origin: Program Fullerene / C70 from database
 C            1.24176662       -0.08986706        4.20569020
 C            2.44603521       -0.28421610        3.41852522
 C            2.43347661       -1.66771810        2.96375056
 C            0.40281862       -1.26521842        4.02231097
 C            1.06808075       -2.14432100        3.08974110
 C           -0.92730690       -0.81422849        3.70041902
 C            0.42620940        1.08614771        3.96877414
 C           -0.92892561        0.63983531        3.69267615
 C            0.95405065        2.13038357        3.23039408
 C            2.88063446        0.72613979        2.55777632
 C            2.23461699        1.96195900        2.55325898
 C            3.70334234        0.39905088        1.48239390
 C            3.15617246       -2.01267611        1.83418329
 C            3.97282451       -0.99758331        1.19502438
 C            2.49823718       -2.77330407        0.78515606
 C            0.39071740       -2.57319103        1.94945847
 C            1.14008479       -3.08188197        0.88419430
 C           -1.65172328       -1.46567293        2.71385676
 C           -0.97848887       -2.28184290        1.78262401
 C           -2.82919017       -0.83671699        2.33683721
 C           -1.71160830        1.29532538        2.73823207
 C           -2.82968652        0.61567901        2.26016111
 C            0.08127171        2.86459654        2.33458146
 C           -1.14432192        2.31245445        1.95986939
 C            2.17612886        2.72513550        1.31592416
 C            0.93001406        3.47476343        1.32664882
 C            3.52323083        1.08617864        0.21062200
 C            2.62046716        2.13783699        0.13196131
 C            3.88120415       -1.18242421       -0.24339795
 C            3.01832736       -2.31730188       -0.49499474
 C            3.52685584        0.08819373       -0.84051114
 C            2.14585479       -2.27082242       -1.57522736
 C            0.49367039       -3.50730667       -0.26734815
 C            1.06691479       -3.14792881       -1.55328375
 C           -1.65584798       -2.75503833        0.64463266
 C           -0.94384220       -3.37705511       -0.37148441
 C           -3.57824380       -1.34571456        1.21706152
 C           -2.93025908       -2.28865812        0.33686902
 C           -3.39281081        0.97963684        0.97460217
 C           -4.00540285       -0.20813904        0.41854543
 C           -1.67752109        2.62486957        0.70257446
 C           -2.66558871        1.81399760        0.13962450
 C            0.36437243        3.84076558        0.11900072
 C           -1.04997142        3.59012827       -0.07949309
 C            1.89491309        2.33460151       -1.04588999
 C            1.02316913        3.41825940       -1.10096111
 C            2.51464124        0.11334130       -1.79020476
 C            2.04552612       -1.09056309       -2.32148275
 C            1.77796932        1.28660147       -1.97514731
 C            1.17476270       -1.04586217       -3.40305928
 C           -0.01757787       -2.98085910       -2.50104191
 C           -1.27023085       -3.07304822       -1.75996628
 C            0.11623730       -2.03952500       -3.50827739
 C           -3.22298369       -1.88017190       -1.02775344
 C           -3.75255442       -0.52617424       -0.96950245
 C           -2.32959761       -2.20715591       -2.04565674
 C           -2.74166422        1.64698946       -1.25209785
 C           -3.19630935        0.43914991       -1.79885568
 C           -1.27286877        3.59398746       -1.51093598
 C            0.03262931        3.49011508       -2.15118676
 C           -2.12291393        2.57139593       -2.08842486
 C            0.88365967        1.37244659       -3.05167958
 C            0.62926174        0.23559258       -3.81599880
 C           -0.04077752        2.41291530       -3.11058845
 C           -1.44955992        2.09753296       -3.28212439
 C           -1.07358154       -1.37469142       -3.99442536
 C           -2.26068013       -1.36876801       -3.15946469
 C           -2.70265484        0.01178785       -3.02935906
 C           -0.72518717        0.00385895       -4.28977856
 C           -1.79026866        0.85399316       -3.78835187
