   70
C70 / DATE: 7/ 1/2024 / Origin: Program Fullerene / C70 from database
 C            1.47063979        0.05652493        4.69185402
 C            0.67340054       -1.14696817        4.54614640
 C            1.22020937       -1.92540197        3.44859965
 C            2.53217258        0.00348958        3.70460032
 C            2.43284282       -1.25996813        3.00274844
 C            2.47368010        1.21820225        2.91401624
 C            0.61970731        1.18495794        4.35850900
 C            1.24380963        1.90081318        3.27034857
 C           -0.71265863       -0.74120098        4.46544500
 C           -0.72433964        0.68708880        4.16505082
 C           -1.58030328       -1.56108271        3.76441647
 C            0.34392652       -2.45462674        2.49715192
 C           -1.01970485       -2.49426067        2.78969466
 C            0.77369785       -2.58651092        1.16971518
 C            2.72008266       -1.26698078        1.64934210
 C            2.07570379       -2.20055366        0.84619500
 C            2.80467744        1.13532042        1.56217699
 C            3.21280019       -0.10034331        1.06040461
 C            2.25248982        2.06905093        0.67673504
 C            0.45850283        2.37565231        2.23474724
 C            1.11486175        2.78271547        1.08408995
 C           -1.47407145        1.14919070        3.08074853
 C           -0.89249924        2.00800820        2.13652261
 C           -2.73450118       -0.94110407        3.14800300
 C           -2.62585523        0.44706709        2.73688675
 C           -1.97658699       -2.62956669        1.70918465
 C           -3.07572090       -1.72234817        1.97782723
 C           -0.15340699       -2.84341302        0.14638756
 C           -1.52220071       -2.71922873        0.40174161
 C            0.28197139       -2.97160618       -1.18235741
 C            2.55067928       -2.39086511       -0.44133407
 C            1.61891491       -2.73643283       -1.49415884
 C            3.65690276       -0.16618810       -0.25182978
 C            3.48185655       -1.41304850       -0.97569946
 C            2.62097948        2.02387058       -0.67765661
 C            3.32443535        0.92035276       -1.15598879
 C            1.95590237        2.81672588       -1.60980728
 C            0.38080537        3.51471540        0.16901462
 C            0.89947059        3.69655548       -1.16449990
 C           -1.58975293        2.31298873        0.95860281
 C           -1.03996753        3.23680543        0.07566739
 C           -3.15293153        0.54663220        1.38582429
 C           -3.46027322       -0.79778467        0.93009183
 C           -2.56647311        1.43497843        0.48933006
 C           -2.35674088       -2.25677566       -0.61070574
 C           -3.13466329       -1.12042306       -0.37592098
 C           -0.64674940       -2.88420201       -2.22199005
 C           -2.03313106       -2.58202850       -1.91783731
 C           -0.28815377       -2.12323183       -3.40877784
 C            1.93479695       -1.91741028       -2.65744102
 C            3.07365701       -1.09391481       -2.33210435
 C            2.92897716        0.33860957       -2.43096662
 C            0.88395042       -1.37356421       -3.38397832
 C            1.53137627        2.21247528       -2.86427128
 C            1.82515613        0.86768536       -3.09052099
 C            0.83828021        0.01633427       -3.61638552
 C           -0.21125192        3.57563532       -2.09108527
 C           -1.38236854        3.16474679       -1.33341752
 C            0.22188900        2.74815516       -3.20239072
 C           -2.66685430        1.17692490       -0.88576543
 C           -3.09925308       -0.08953674       -1.30610112
 C           -2.13744856        2.09516113       -1.80366039
 C           -2.55640695       -1.75256035       -2.99170664
 C           -1.50022176       -1.57121602       -3.97242687
 C           -3.06908011       -0.44045465       -2.64944566
 C           -0.28722449        0.59009839       -4.21360794
 C           -0.70848550        1.91180925       -3.79368989
 C           -2.00103870        1.74520840       -3.14665518
 C           -1.50345973       -0.18412107       -4.37377305
 C           -2.54942676        0.49437279       -3.61986269
