   70
C70 / DATE: 7/ 1/2024 / Origin: Program Fullerene / C70 from database
 C            1.36076321       -0.22632176        4.40957308
 C            2.57428771       -0.54708079        3.69877047
 C            2.50466158       -1.94230056        3.29046152
 C            0.52581579       -1.41861037        4.43520351
 C            1.22376464       -2.47435564        3.72065041
 C           -0.80386923       -1.02824736        3.99267026
 C            0.54054971        0.86707084        3.92577862
 C           -0.83763870        0.42231302        4.00047596
 C            0.94158369        1.62144195        2.82105565
 C            2.91719974        0.23250262        2.52769251
 C            2.13953488        1.32466864        2.14654792
 C            2.85925869       -2.00790997        1.88034293
 C            3.34103417       -0.69380672        1.49833409
 C            2.03811083       -2.70953685        0.99933652
 C            0.50476101       -3.26884596        2.83846313
 C            1.06628212       -3.55655194        1.52850818
 C           -1.40078150       -1.72557230        2.94236805
 C           -0.90578284       -2.98668579        2.62545976
 C           -2.23220783       -1.04168589        2.04169848
 C           -1.77453109        1.06505407        3.21381150
 C           -2.60848192        0.26430384        2.33573928
 C           -0.00649294        2.45223363        2.21431330
 C           -1.36038435        2.23086054        2.45195894
 C            0.36022079        3.23081435        1.12426770
 C            2.35139497        1.84602556        0.86954811
 C            1.62436536        2.96139126        0.47171158
 C            3.20413973       -0.29812881        0.17932923
 C            2.99475754        1.05416237       -0.08781376
 C            1.96693364       -2.29225937       -0.33874379
 C            2.78884831       -1.24143676       -0.75746033
 C            0.92685488       -2.72654451       -1.17715843
 C           -0.03480642       -3.98458123        0.69610791
 C           -1.26940064       -3.59833157        1.36768535
 C           -0.10847784       -3.49494694       -0.66083258
 C           -2.49137468       -1.55515657        0.76184553
 C           -2.05697165       -2.83446609        0.42488941
 C           -1.46478815       -3.03998809       -0.88178350
 C           -2.87792752       -0.69653692       -0.27739231
 C           -3.05578267        1.13419635        1.26749412
 C           -2.30830970        2.38054507        1.36229390
 C           -3.30092328        0.60951763        0.00868628
 C           -0.62220335        3.53157259        0.08968765
 C           -1.91740503        3.02037367        0.18740983
 C            1.47389605        3.26789135       -0.94083361
 C            0.06575141        3.51232441       -1.19431906
 C            3.07947293        1.48655224       -1.40695843
 C            2.21346299        2.55802658       -1.86829850
 C            2.81592756       -0.89236429       -2.10303711
 C            3.13468235        0.48159715       -2.45270505
 C            0.68284231       -2.04336233       -2.36936284
 C            1.72040330       -1.32098654       -2.95001765
 C           -1.66915765       -2.06897371       -1.84583090
 C           -2.62415836       -1.08714091       -1.60138361
 C           -0.64185945       -1.79663958       -2.74929362
 C           -3.02177720       -0.28315832       -2.66317368
 C           -3.43537887        1.52890784       -1.02420893
 C           -2.62302066        2.73520527       -0.98086415
 C           -3.46754962        1.06354647       -2.39237543
 C           -0.56268038        2.93490791       -2.29478416
 C           -1.95251577        2.84299913       -2.26577167
 C           -2.65160732        1.96917809       -3.18623129
 C            1.57302592        2.11622171       -3.09436620
 C            2.24035748        0.89597052       -3.51863369
 C            1.42861076       -0.24844248       -3.89051060
 C            0.18815508        2.20626274       -3.23300034
 C           -0.90939991       -0.94944057       -3.82112426
 C           -2.17380870       -0.22867131       -3.84145738
 C           -1.87787135        1.17164192       -4.10749900
 C            0.11437347       -0.02351981       -4.26651339
 C           -0.43675801        1.31230724       -4.10643142
