   70
C70 / DATE: 7/ 1/2024 / Origin: Program Fullerene / C70 from database
 C            0.97914643       -0.02715811        4.77346658
 C            2.29017288       -0.39782021        4.29100939
 C            2.23428429       -1.79979984        3.90840216
 C            0.13341137       -1.20912111        4.69342011
 C            0.83110979       -2.17298463        3.87044530
 C           -1.17913056       -0.77421509        4.28218252
 C            0.27103322        1.04446531        4.10400277
 C           -1.12506170        0.67024682        4.10531071
 C            0.79359012        1.60848689        2.94277577
 C            2.84634710        0.32433720        3.16585481
 C            2.10326790        1.31766352        2.52678170
 C            3.02847445       -1.95822998        2.70155777
 C            3.55575968       -0.64615109        2.35444274
 C            2.53819066       -2.77958166        1.69536146
 C            0.28248123       -2.59643414        2.65737046
 C            1.13883801       -3.18339340        1.73398403
 C           -1.74635499       -1.32645992        3.06846188
 C           -0.98074260       -2.14386032        2.23733353
 C           -1.91853331        0.98771061        2.93340236
 C           -2.50312376       -0.25461909        2.46491816
 C           -0.07478460        2.27172511        2.07194141
 C           -1.41105246        1.86600707        1.97542069
 C            0.47001776        3.05117421        1.06476103
 C            2.54107583        1.76899610        1.27921322
 C            1.82607735        2.76904418        0.63132847
 C            3.80246484       -0.33469404        1.02386782
 C            3.39887331        0.96854961        0.52384856
 C            2.87806741       -2.49878640        0.30977725
 C            3.50706398       -1.30866295       -0.01825713
 C            0.69837488       -3.37463495        0.37168845
 C            1.77837069       -2.96397435       -0.51150184
 C           -1.36859112       -2.27097979        0.89238454
 C           -0.60113671       -3.04526001        0.01467214
 C           -2.79927888       -0.33521771        1.11939749
 C           -2.40732775       -1.46139397        0.39630800
 C           -2.04940128        1.89338020        0.72897177
 C           -2.93805558        0.85821743        0.43142496
 C           -0.32179096        3.34245730       -0.11703041
 C           -1.53666352        2.68847424       -0.30323886
 C            1.83238327        2.81085423       -0.82121937
 C            0.59960239        3.45980722       -1.23311403
 C            3.17253683        0.83387535       -0.90607705
 C            3.07593838       -0.58177656       -1.20285046
 C            2.29235066        1.70290027       -1.53062992
 C            1.44410099       -2.30048297       -1.68833151
 C            1.99350456       -1.03844130       -1.95438670
 C           -0.86935239       -2.99651288       -1.34673732
 C            0.21655044       -2.62954447       -2.24523266
 C           -2.78454024       -1.52877314       -0.95138962
 C           -2.06916467       -2.34315527       -1.82175506
 C           -3.53507086        0.79868274       -0.81247445
 C           -3.56045545       -0.49187820       -1.47757075
 C           -2.06541080        2.58572890       -1.59544430
 C           -3.19400430        1.79511972       -1.80352402
 C            0.12155481        3.21803780       -2.50896434
 C           -1.30366986        3.02215460       -2.68382503
 C            1.55829439        1.25068939       -2.62557292
 C            1.29772881       -0.12403386       -2.76003392
 C            0.76685527        2.17953160       -3.29178423
 C           -0.33875062       -1.80332749       -3.29214041
 C           -1.78485706       -1.88889846       -3.17661370
 C            0.24820667       -0.57700105       -3.57241856
 C           -3.56201106       -0.24087384       -2.91011974
 C           -3.44962134        1.19678939       -3.10470271
 C           -2.55932694       -0.88429737       -3.73730320
 C           -1.45350087        2.38999881       -3.98427731
 C           -0.19074877        1.72817235       -4.27718254
 C           -0.45470433        0.31164287       -4.38159467
 C           -2.51462875        1.42611375       -4.18510473
 C           -1.89525252        0.15139484       -4.51308654
