   70
C70 / DATE: 7/ 1/2024 / Origin: Program Fullerene / C70 from database
 C            1.22071841       -0.19231543        4.47860715
 C            2.49739739       -0.40194562        3.82302646
 C            2.43640572       -1.68089089        3.13742597
 C            0.38646693       -1.35313059        4.20637644
 C            1.08287577       -2.19061714        3.25969238
 C           -0.93100401       -0.88142137        3.85296824
 C            0.44680478        0.99573833        4.15913957
 C           -0.91315663        0.57185128        3.88362050
 C            1.00916661        1.99863807        3.38317606
 C            2.97137873        0.58721175        2.87289691
 C            2.32695872        1.81353775        2.78407435
 C            2.98148513       -1.50140806        1.80296552
 C            3.34092358       -0.10312184        1.64594583
 C            2.35746506       -2.13836072        0.74191044
 C            0.43072511       -2.58909918        2.09868586
 C            1.21365382       -2.90008030        0.99344024
 C           -1.62827821       -1.49978400        2.82034046
 C           -0.93353013       -2.31224251        1.90872478
 C           -2.78625421       -0.85606611        2.40263388
 C           -1.68756136        1.24868856        2.94403047
 C           -2.83726252        0.59398031        2.52083402
 C            0.17375394        2.69189943        2.41653819
 C           -1.07576769        2.17939092        2.08848408
 C            2.32615214        2.50630936        1.51164346
 C            1.04143283        3.16927097        1.35935935
 C            3.12064932        0.52081822        0.41576709
 C            2.88949633        1.89992333        0.39162302
 C            2.56209116       -1.63273882       -0.53766580
 C            2.78527236       -0.26283606       -0.70039656
 C            2.14749056       -2.39638719       -1.61834487
 C            0.61990424       -3.58388066       -0.05369685
 C            1.21992571       -3.48466328       -1.37059026
 C           -1.53571793       -2.68092697        0.69356455
 C           -0.81958825       -3.47688756       -0.20482144
 C           -3.39672745       -1.21788904        1.14285893
 C           -2.71368523       -2.05457348        0.27033692
 C           -3.56704337        1.11095300        1.38723677
 C           -4.03941988       -0.02487862        0.61601834
 C           -1.58589572        2.41564292        0.80375758
 C           -2.87690663        2.00439379        0.48493913
 C            0.54632562        3.31991033        0.07096209
 C           -0.73162761        2.82343126       -0.22918806
 C            2.66440499        2.52026655       -0.82926236
 C            1.50064485        3.38602278       -0.93768230
 C            2.55373056        0.34755518       -1.94002459
 C            2.70750157        1.72830491       -2.04016337
 C            1.73491455       -1.73418711       -2.83786391
 C            1.94753157       -0.37010762       -2.98339748
 C            0.14862939       -3.39674920       -2.34574553
 C           -1.11040807       -3.40855799       -1.62904689
 C            0.44350173       -2.28422408       -3.22954230
 C           -3.01672533       -1.98116019       -1.08978381
 C           -2.13067332       -2.58360710       -2.06749606
 C           -3.86729239        0.29300760       -0.78775193
 C           -3.15863266        1.56170236       -0.86905158
 C           -3.50392755       -0.72905873       -1.64940847
 C           -1.10954504        2.59118649       -1.56206182
 C           -2.17947654        1.73742736       -1.83932334
 C            1.07660506        3.38024953       -2.31707563
 C            1.95579126        2.47035683       -3.03498492
 C           -0.28336741        2.99024242       -2.60725427
 C            1.15224164        0.29135833       -3.91667275
 C            1.14209055        1.73733156       -3.97608959
 C           -0.23676965        2.16693414       -3.79637346
 C           -0.57584107       -1.41198429       -3.61083168
 C           -1.86636419       -1.58801957       -3.10147901
 C           -2.67501636       -0.41674661       -2.79778704
 C           -2.09863534        0.84213248       -2.91409042
 C           -0.21494788       -0.15952629       -4.10612828
 C           -1.07545808        0.98440612       -3.84252839
