   70
C70 / DATE: 7/ 1/2024 / Origin: Program Fullerene / C70 from database
 C            1.66914249        0.00477686        4.51915050
 C            0.85766162       -1.19433484        4.44506545
 C            1.34171786       -2.00838962        3.34063911
 C            2.66054812       -0.07134867        3.46433996
 C            2.48038651       -1.32128939        2.75469059
 C            2.58234103        1.15195094        2.69640833
 C            0.80498651        1.13561580        4.22625652
 C            1.38202369        1.85974097        3.10747621
 C           -0.53198619       -0.78094229        4.42793993
 C           -0.55014785        0.63622310        4.09325706
 C           -1.43511559       -1.61571881        3.79357114
 C            0.40015280       -2.61315792        2.50674450
 C           -0.90934064       -2.69834336        2.97736578
 C            0.65530332       -2.69239872        1.12741494
 C            2.60882623       -1.31015983        1.37462212
 C            1.88203809       -2.23307351        0.63522103
 C            2.84677268        1.08977617        1.33860468
 C            3.07509549       -0.15378498        0.74139801
 C            2.34091292        2.10705167        0.54535546
 C            0.53394678        2.34810187        2.11362096
 C            1.06859323        2.60198964        0.84352245
 C           -1.30954676        1.07508788        3.01063736
 C           -0.84267241        2.14798511        2.24708273
 C           -2.50238164       -1.01792862        3.01667602
 C           -2.32453768        0.25992461        2.49921213
 C           -1.96907632       -3.09018946        2.07753013
 C           -2.99820952       -2.05914415        2.14279233
 C           -0.35330896       -3.08621231        0.22986790
 C           -1.65404100       -3.29342704        0.68289141
 C           -0.15036217       -2.95629494       -1.14653838
 C            2.18084038       -2.36624461       -0.71195669
 C            1.13078122       -2.74742349       -1.63487552
 C            3.32278613       -0.18865909       -0.63415276
 C            2.99060598       -1.34068839       -1.35104101
 C            2.83407670        2.20466878       -0.74424551
 C            3.46570538        1.02499822       -1.30794217
 C            2.00001338        2.78371425       -1.77538621
 C            0.22066589        3.02247491       -0.18778650
 C            0.63861872        2.93309732       -1.52226180
 C           -1.69152783        2.70381747        1.30122434
 C           -1.11127470        3.28736218        0.10654870
 C           -2.94750541        0.61344151        1.30001939
 C           -2.85420611        1.93826965        0.88976446
 C           -3.35053075       -1.71320763        0.77950562
 C           -2.75299667       -2.72463917       -0.07208259
 C           -3.30183521       -0.38094673        0.37307315
 C           -1.23561286       -2.69673043       -1.98090370
 C           -2.53931935       -2.41905237       -1.40366910
 C           -1.06676658       -1.80372176       -3.11511269
 C            1.31571604       -1.99099475       -2.86620790
 C            2.56262938       -1.24904493       -2.74054133
 C            0.21134861       -1.41887993       -3.50148409
 C            3.29148102        1.08381090       -2.74814561
 C            2.45510377        2.23824335       -3.04124124
 C            2.73210911       -0.06204759       -3.43819015
 C            0.35379711       -0.22577140       -4.20214669
 C            1.46827820        1.83388926       -4.01375297
 C            1.65507627        0.41626644       -4.28323448
 C           -0.29930917        2.73062551       -2.55133432
 C            0.07033753        2.03873077       -3.69982339
 C           -0.64482881        0.81831713       -4.02830906
 C           -2.09390552        3.17858284       -0.94726384
 C           -3.13910265        2.27815201       -0.48786624
 C           -1.65386959        2.72295621       -2.24692607
 C           -3.28301214       -0.10697601       -1.00029281
 C           -2.95387856       -1.11731230       -1.89879890
 C           -2.12245337       -0.80131832       -3.05007369
 C           -1.82554609        0.52939178       -3.34393240
 C           -3.25887182        1.20551761       -1.45105072
 C           -2.43334029        1.54524461       -2.60091988
