   70
C70 / DATE: 7/ 1/2024 / Origin: Program Fullerene / C70 from database
 C            1.28781021       -0.17009202        4.42694567
 C            2.53540458       -0.39547385        3.72342523
 C            2.41256020       -1.64436964        2.98650732
 C            0.43132389       -1.31823815        4.18501930
 C            1.07806671       -2.16048590        3.19960393
 C           -0.90240814       -0.82992484        3.88713191
 C            0.52079977        1.02824510        4.13393552
 C           -0.83366869        0.62185599        3.79462637
 C            1.11136347        2.06307610        3.42349330
 C            3.01408409        0.61876569        2.80182362
 C            2.40698240        1.86596433        2.77872901
 C            2.84723245       -1.40653007        1.62597406
 C            3.31723322       -0.03597229        1.54312266
 C            2.09235700       -1.90959274        0.56878362
 C            0.32834866       -2.55889668        2.10145897
 C            0.91688606       -2.61923204        0.83100062
 C           -1.66720189       -1.51070248        2.94618680
 C           -1.06111879       -2.53082494        2.20483648
 C           -2.73976405       -0.82463056        2.38808188
 C           -1.52749204        1.26641013        2.76630980
 C           -2.62514753        0.61313443        2.21125348
 C            0.29280127        2.83472271        2.50920080
 C           -0.91401417        2.30398210        2.05387509
 C            2.38772953        2.61371288        1.53300213
 C            1.20239069        3.44924316        1.56023975
 C            3.12642301        0.64026414        0.34495191
 C            2.74392360        1.98839105        0.33801519
 C            2.27798118       -1.35441583       -0.69499778
 C            2.93226712       -0.11898085       -0.80084827
 C            1.57560998       -1.88515441       -1.77946556
 C            0.15674169       -3.10491192       -0.23673555
 C            0.49680722       -2.74592803       -1.55155599
 C           -1.79674079       -3.20109826        1.23711432
 C           -1.09747041       -3.65210647        0.04882649
 C           -3.40755252       -1.36908886        1.22161230
 C           -3.07006902       -2.64612075        0.80301929
 C           -3.02829709        0.92112213        0.85135532
 C           -3.49728223       -0.30510156        0.23052295
 C           -1.36669576        2.64147176        0.77299298
 C           -2.26262437        1.80228176        0.10891748
 C            0.69299873        3.90226287        0.35745298
 C           -0.70143008        3.63216771        0.05565310
 C            2.37122098        2.58929133       -0.87233046
 C            1.43936186        3.63019954       -0.85787790
 C            3.01849994        0.52866749       -2.02058501
 C            2.63957896        1.92723807       -2.07318105
 C            1.75085337       -1.34374790       -3.05365911
 C            2.51712507       -0.12377304       -3.20736973
 C            0.59855474       -1.21865166       -3.92654905
 C           -0.38269712       -3.00000991       -2.60890737
 C           -0.49848485       -2.01442159       -3.66370279
 C           -2.09445923       -3.78982566       -0.99148965
 C           -3.23046026       -2.97237703       -0.60147646
 C           -1.74122279       -3.41918739       -2.33952422
 C           -3.17009760       -0.57661175       -1.09766429
 C           -1.76660489       -1.35383883       -3.42591202
 C           -3.31952184       -1.88306680       -1.55684738
 C           -2.60233557       -2.31134299       -2.73504189
 C           -2.15427215        1.60858004       -1.26950847
 C           -2.38751071        0.34204568       -1.81260313
 C           -1.74603851       -0.02653288       -3.00780932
 C           -0.84052198        3.66774030       -1.38841737
 C            0.49608485        3.75962212       -1.95388418
 C           -1.52591539        2.57255597       -2.04636504
 C            1.74817932        2.09734716       -3.21510904
 C            1.68063114        0.83171578       -3.91709675
 C            0.38449182        0.20716048       -4.10068943
 C           -0.74645881        0.79790307       -3.53229440
 C            0.57926924        2.82509295       -3.05665838
 C           -0.70439874        2.13902651       -3.15884457
