   70
C70 / DATE: 7/ 1/2024 / Origin: Program Fullerene / C70 from database
 C            1.65892165       -0.09402661        5.11137169
 C            0.78162621       -1.24348908        5.23921490
 C            1.27127484       -2.25726241        4.33365557
 C            2.57727542       -0.34000834        4.00823523
 C            2.34138549       -1.67912862        3.53178755
 C            2.44996094        0.75193761        3.06588190
 C            0.83544702        1.03125916        4.73078264
 C            1.50391377        1.69977800        3.63073401
 C           -0.54191295       -0.86171179        4.76690951
 C           -0.51396489        0.55304166        4.48707665
 C            0.11863658       -2.78715769        3.62942335
 C           -0.91311183       -1.76360159        3.69361016
 C            0.35993529       -3.36171248        2.40087447
 C            2.30950293       -1.91837054        2.16357576
 C            1.63438801       -3.06290160        1.77007034
 C            2.37346600        0.47724293        1.69569402
 C            2.41329639       -0.85187885        1.24581117
 C            1.85802471        1.47359452        0.85754349
 C            0.70725838        2.38646276        2.73433801
 C            1.21094435        2.56182091        1.45339018
 C           -1.13689442        1.02699391        3.34285367
 C           -0.67480434        2.23930816        2.85987609
 C           -1.42477176       -1.23339534        2.50146333
 C           -1.69610782        0.13413070        2.41386602
 C           -0.62508912       -3.17683102        1.35767884
 C           -1.35918917       -1.99861161        1.33134686
 C            1.46105390       -3.30433951        0.36802803
 C            0.05121307       -3.58388298        0.15618523
 C            2.26348718       -1.11785532       -0.12750788
 C            2.07140046       -2.44732174       -0.53286831
 C            1.66501026        1.20703725       -0.50392363
 C            1.92684115       -0.06972821       -1.00686830
 C            1.12635998        2.19179872       -1.34184245
 C            0.55668965        3.48911742        0.66189575
 C            0.60220994        3.35612633       -0.77839175
 C           -1.47181275        2.88107733        1.93440056
 C           -0.81471263        3.79253877        1.02382925
 C           -2.18736696        0.65943034        1.21261651
 C           -2.34816812        2.03981353        1.13558919
 C           -1.64851082       -1.41621097        0.08754611
 C           -2.07810645       -0.08550631        0.02848673
 C           -0.45593982       -3.19625448       -1.06420305
 C           -1.35429088       -2.11478162       -1.09889051
 C            1.76239447       -2.70164718       -1.85788471
 C            0.45992279       -3.30041816       -2.09553485
 C            1.74297508       -0.32813593       -2.37294435
 C            1.88278858       -1.63903626       -2.82278512
 C            0.79534562        1.88464715       -2.66560306
 C            1.12933070        0.63230629       -3.19481346
 C           -0.15486771        2.68388596       -3.31309222
 C           -0.65449804        3.88840454       -1.28697686
 C           -1.59401438        3.81367820       -0.18869985
 C           -2.49683991        2.67373180       -0.15443119
 C           -1.09660703        3.41126584       -2.50061762
 C           -2.33530438        0.51442264       -1.21766301
 C           -2.57877343        1.89876148       -1.30069643
 C           -2.27851074        2.56413857       -2.48388809
 C           -1.66583180       -1.53885553       -2.34160133
 C           -2.19132089       -0.23829890       -2.39750268
 C            0.04159296       -2.92124955       -3.41061830
 C            1.10762067       -2.09883554       -3.95806844
 C           -1.16554960       -2.14122981       -3.50802353
 C            0.65874694        0.27557967       -4.46883190
 C            0.47029216       -1.11756223       -4.79388067
 C           -0.96615020       -1.35617491       -4.70395183
 C           -0.98367161        2.11490876       -4.35126884
 C           -2.26385421        1.82338699       -3.71720352
 C           -2.36290839        0.38700404       -3.64098243
 C           -0.54143944        0.90071063       -4.97797424
 C           -1.60563705       -0.07192986       -4.78560835
