   70
C70 / DATE: 7/ 1/2024 / Origin: Program Fullerene / C70 from database
 C            1.35889840       -0.13890609        4.03692511
 C            2.43047605       -0.35529681        3.08351905
 C            2.24429771       -1.67387356        2.49337750
 C            0.50893844       -1.31605798        4.02640658
 C            0.99730776       -2.21553719        2.99438396
 C           -0.86976552       -0.87037613        3.96043580
 C            0.51178214        1.02589597        3.88099166
 C           -0.85399390        0.56068311        3.70148085
 C            0.96839795        2.07687968        3.10546182
 C            2.84896650        0.69393139        2.26763220
 C            2.21110168        1.93447139        2.35375534
 C            3.57258118        0.38086973        1.12033864
 C            2.58707760       -1.86150170        1.16073224
 C            3.50670329       -0.97626801        0.60367948
 C            1.73695107       -2.59332015        0.32478354
 C            0.08785801       -2.76734884        2.10062409
 C            0.48527917       -3.02482536        0.78587312
 C           -1.77572262       -1.65676277        3.26823920
 C           -1.27093220       -2.72738311        2.42064389
 C           -2.84399884       -1.00836043        2.53263145
 C           -1.63869417        1.07772229        2.66779645
 C           -2.74534123        0.34857277        2.22591635
 C            0.02727820        2.78325469        2.25818848
 C           -1.20475837        2.20446786        1.95433128
 C            2.10042298        2.77438388        1.16829078
 C            0.79749451        3.41669309        1.20478180
 C            3.54303256        1.28158440       -0.02009554
 C            2.62075688        2.32353492       -0.04229976
 C            3.68819593       -0.91651400       -0.83609073
 C            3.77355435        0.48644201       -1.21432691
 C            2.05950114       -2.73371512       -1.02599535
 C            2.99952026       -1.81116706       -1.64108295
 C            1.00852588       -2.98936072       -1.99546698
 C           -0.43700653       -3.55703250       -0.11526382
 C           -0.24034618       -3.36914578       -1.54036743
 C           -2.27061720       -2.97767941        1.39456954
 C           -3.29002830       -1.94541006        1.51266622
 C           -1.85840806       -3.40330270        0.14086403
 C           -3.91602121       -1.45468116        0.37417120
 C           -3.55438204        0.87056487        1.22515050
 C           -4.23143247       -0.03884250        0.31428968
 C           -1.89968810        2.63632491        0.81865084
 C           -3.07809822        1.99616604        0.44787901
 C            0.16745694        3.72749617        0.01460100
 C           -1.23382582        3.38095505       -0.15561371
 C            2.02402361        2.70505765       -1.24950671
 C            0.84632065        3.45374880       -1.24006467
 C            3.24027106        0.91261361       -2.42133732
 C            2.44530440        2.12735036       -2.44706239
 C            2.42192057       -1.35864379       -2.89807819
 C            1.09939988       -1.95445173       -3.01159689
 C            2.61436981       -0.04890397       -3.31799631
 C           -0.00824108       -1.14659785       -3.27960918
 C           -1.40367934       -2.65853308       -2.03598477
 C           -2.46175690       -2.83259615       -1.05576296
 C           -3.44010487       -1.85577760       -0.94200471
 C           -1.22850313       -1.42487282       -2.66158964
 C           -3.97783567        0.41708356       -1.04167218
 C           -3.29056756        1.68793602       -0.95979885
 C           -3.33345968       -0.66015581       -1.76020618
 C           -2.14459768       -0.39209471       -2.43317833
 C           -1.43934418        3.03986595       -1.55358773
 C           -0.17587479        3.20496672       -2.24701003
 C           -2.26369458        1.96199574       -1.85585990
 C           -1.77604168        0.93573595       -2.67659574
 C            1.50082045        2.00526295       -3.54401114
 C            1.52704767        0.62752822       -4.00178597
 C            0.18112386        0.09310454       -3.88153131
 C            0.11645097        2.37323190       -3.31549880
 C           -0.70264739        1.18892047       -3.52612961
