   70
C70 / DATE: 7/ 1/2024 / Origin: Program Fullerene / C70 from database
 C            1.31476190       -0.12579853        4.17992687
 C            2.37480902       -0.30807617        3.20622099
 C            2.22845518       -1.63932723        2.63553849
 C            0.48471959       -1.31838978        4.15965029
 C            0.95990643       -2.17615325        3.08821993
 C           -0.90095066       -0.89870982        4.14705878
 C            0.44676706        1.02847238        4.06145767
 C           -0.92266366        0.54910627        3.97227081
 C            0.84681261        2.08232264        3.25744340
 C            2.73678257        0.74742554        2.37133142
 C            2.06507561        1.96701578        2.46431969
 C            3.45469553        0.45410360        1.21642842
 C            2.61605269       -1.84533330        1.31959806
 C            3.47735917       -0.91803216        0.73930665
 C            1.82632532       -2.64753551        0.49627574
 C            0.05331377       -2.65900994        2.14774759
 C            0.48482253       -2.88108496        0.83414844
 C           -1.81151477       -1.66996533        3.44215892
 C           -1.31776872       -2.58541520        2.41876125
 C           -2.99588307       -1.01980690        2.91692449
 C           -1.80884499        1.12135824        3.05523653
 C           -2.95942601        0.41499883        2.70346859
 C           -0.14230525        2.77031849        2.44939300
 C           -1.42114560        2.23957979        2.30593307
 C            1.89674548        2.79335773        1.27740544
 C            0.53801073        3.31579166        1.28495521
 C            3.34947873        1.32241627        0.05313607
 C            2.47351237        2.40401278        0.07270875
 C            3.63888381       -0.88536561       -0.70418607
 C            3.43587136        0.48652011       -1.13705456
 C            2.26679171       -2.90047528       -0.80019228
 C            3.10702180       -1.91480253       -1.46029042
 C            1.32593030       -3.39807300       -1.78217067
 C           -0.47253147       -3.04979778       -0.17257587
 C           -0.08394111       -3.34429144       -1.46822940
 C           -2.25678756       -2.55663191        1.31050066
 C           -3.32612113       -1.64436596        1.64738396
 C           -1.74830905       -2.54892510        0.02293373
 C           -3.60117855        0.66900947        1.42699417
 C           -3.65241959       -0.59272014        0.70682000
 C           -2.18971582        2.65503003        1.22103013
 C           -3.26946372        1.81670259        0.72908809
 C           -0.15313062        3.44566015        0.08365037
 C           -1.53237407        3.25850630        0.06930883
 C            1.90322266        2.83853222       -1.12044989
 C            0.55568692        3.38919801       -1.11215157
 C            2.61141924        0.76108175       -2.22571641
 C            2.04631522        2.02965432       -2.32108568
 C            2.48902141       -1.60090248       -2.73516154
 C            1.53654620       -2.65915710       -3.01526000
 C            2.14143771       -0.28290196       -3.03280919
 C           -0.76721204       -2.67076432       -2.55926524
 C            0.23824788       -2.29621440       -3.54817432
 C           -2.31144974       -1.72390970       -0.95722163
 C           -3.13461164       -0.65071572       -0.58442387
 C           -1.82106858       -1.79747468       -2.26686293
 C           -3.14778214        1.74893413       -0.71710213
 C           -2.18255272        2.75301227       -1.13071371
 C           -3.14514437        0.51150108       -1.35525267
 C           -0.11125971        2.95854217       -2.33267391
 C            0.86946344        2.24437476       -3.14178556
 C           -1.43764207        2.52776470       -2.28380983
 C            1.12084961       -0.04951238       -3.95891147
 C            0.11639496       -1.07915963       -4.19992758
 C            0.45357712        1.24126117       -4.00078297
 C           -2.13329617       -0.78194909       -3.16729198
 C           -2.69765376        0.45647878       -2.66715846
 C           -1.88181788        1.55093396       -3.17301872
 C           -1.18000359       -0.43441972       -4.20651083
 C           -0.96711778        1.00219003       -4.15651316
