   70
C70 / DATE: 7/ 1/2024 / Origin: Program Fullerene / C70 from database
 C            1.64335296       -0.20982906        5.11250951
 C            0.77462585       -1.37009467        5.18959359
 C            1.27028312       -2.35072501        4.24490742
 C            2.61760435       -0.44798312        4.06113122
 C            2.36628703       -1.75554843        3.49579246
 C            2.58927644        0.69079784        3.17210629
 C            0.83365032        0.91921830        4.69613154
 C            1.52359655        1.58012542        3.59866284
 C           -0.54923502       -0.97321237        4.73685142
 C           -0.51598830        0.44413919        4.45051146
 C            0.12998058       -2.84113594        3.49798500
 C           -0.94711894       -1.87532051        3.67269799
 C            0.36830365       -3.31411072        2.22223408
 C            2.37199233       -1.90604105        2.10875439
 C            1.61873775       -2.94287851        1.57155018
 C            2.73035193        0.48256737        1.81136028
 C            2.69781372       -0.81861392        1.28682917
 C            2.38905634        1.53626388        0.97736466
 C            0.74552025        2.18118483        2.60809134
 C            1.28844558        2.32600445        1.32323002
 C           -1.14330827        0.90643525        3.30389452
 C           -0.63760326        2.06396023        2.72748210
 C           -1.57840185       -1.34882820        2.54132528
 C           -1.85415427        0.01993341        2.48383852
 C           -0.66423595       -3.13867840        1.22672806
 C           -1.57077903       -2.08919382        1.35937385
 C            1.38443334       -2.98695735        0.13990368
 C           -0.01282892       -3.32883794       -0.04893379
 C            2.67933324       -0.97288484       -0.10823129
 C            1.94139221       -2.01407952       -0.68707262
 C            2.79179650        1.45430123       -0.34086019
 C            3.01955032        0.12941627       -0.88758475
 C            2.09487603        2.23036041       -1.34194787
 C            0.49640872        2.90655213        0.32103253
 C            0.84989664        2.76541342       -1.03053078
 C           -1.43188859        2.69734965        1.79495706
 C           -0.78327167        3.32961969        0.66657220
 C           -2.49115230        0.54739210        1.35557574
 C           -2.53827740        1.93703345        1.25152100
 C           -2.12925556       -1.55185878        0.19808196
 C           -2.61471740       -0.23785919        0.19740322
 C           -0.63875899       -2.83585150       -1.17271617
 C           -1.85913519       -2.18492765       -1.01634768
 C            1.39271726       -1.85724160       -1.97022618
 C            0.16291741       -2.47255931       -2.24317022
 C            2.64555244        0.16886564       -2.28722486
 C            2.28988337        1.54534047       -2.60312426
 C            1.89135556       -0.86664002       -2.82507588
 C            1.39864823        1.78216588       -3.63370838
 C           -0.09834890        2.95440073       -2.05159426
 C            0.15405071        2.47244098       -3.33545461
 C           -1.79407555        3.45938634       -0.35707574
 C           -2.88282796        2.55601468       -0.00651765
 C           -1.42845249        3.18909895       -1.72687939
 C           -3.09206429        0.32787047       -1.00054231
 C           -3.12906808        1.70924552       -1.14775212
 C           -2.44369077        2.30895493       -2.27986334
 C           -2.51993120       -1.75924000       -2.15876830
 C           -3.08209288       -0.42423707       -2.17189639
 C           -0.46424620       -2.28995837       -3.46626226
 C           -1.88377485       -1.98625484       -3.45019655
 C            1.31697574       -0.67178302       -4.08049482
 C            1.09120657        0.68860091       -4.53869852
 C            0.15867873       -1.45092938       -4.46343901
 C           -0.91853774        1.78494024       -4.04135806
 C           -2.10656637        1.50052138       -3.36014294
 C           -2.66230663        0.21913043       -3.41180076
 C           -2.09151227       -0.80583332       -4.26898043
 C           -0.30665895        0.80152849       -4.91864998
 C           -0.85428574       -0.53644713       -4.97286222
