   70
C70 / DATE: 7/ 1/2024 / Origin: Program Fullerene / C70 from database
 C            1.37677452       -0.18569601        4.08309157
 C            2.46948050       -0.39944923        3.15148965
 C            2.31735513       -1.73573424        2.59488083
 C            0.52016270       -1.35533547        4.04643412
 C            1.19177465       -2.37465878        3.26068774
 C           -0.80822008       -0.92848501        3.63437952
 C            0.53795271        0.97893022        3.90724533
 C           -0.79042788        0.51575774        3.52917180
 C            1.07058662        2.07074067        3.24311844
 C            2.86494712        0.64071388        2.31101936
 C            2.29504065        1.90729003        2.46524805
 C            3.49734540        0.32013529        1.11199824
 C            2.52145082       -1.92202826        1.22800701
 C            3.34142090       -1.02073282        0.56664547
 C            1.63272077       -2.71328975        0.49450805
 C            0.40321223       -3.25122366        2.53635930
 C            0.80797203       -3.59354469        1.18703175
 C           -1.47302057       -1.68177367        2.67348811
 C           -1.02214763       -2.98432399        2.46411516
 C           -2.22028345       -1.03634377        1.67480454
 C           -1.44569552        1.13169833        2.47048123
 C           -2.24570844        0.37089949        1.60754633
 C            0.18040088        2.90957658        2.46723246
 C           -1.08421489        2.43501965        2.12465879
 C            2.21208875        2.80876861        1.32155215
 C            0.98818671        3.57599911        1.45994148
 C            3.45631116        1.25528093       -0.00108583
 C            2.61529922        2.36222895        0.06598385
 C            3.26293899       -0.90992365       -0.87488687
 C            3.53828552        0.47742451       -1.22186455
 C            1.38939600       -2.42974964       -0.86121584
 C            2.28026053       -1.61348187       -1.56582348
 C            0.23246413       -2.90829920       -1.50262205
 C           -0.36628017       -4.13218430        0.53795440
 C           -1.51973436       -3.74038534        1.33998029
 C           -0.64462346       -3.75171163       -0.82913180
 C           -2.87911180       -1.80293912        0.70017002
 C           -2.46490956       -3.10968940        0.45085856
 C           -2.06610971       -3.47317311       -0.89724502
 C           -3.61175715       -1.16977622       -0.29468794
 C           -3.00449277        1.02114949        0.62449500
 C           -3.61171093        0.27292324       -0.37499711
 C           -1.79380828        3.09812770        1.13583718
 C           -2.72932496        2.35224029        0.32175789
 C            0.36508589        4.06414700        0.32432215
 C           -1.08512431        4.01911406        0.26170920
 C            1.98224515        2.83968866       -1.09057829
 C            0.87375826        3.68027029       -0.98183014
 C            3.00501904        0.99890174       -2.38674299
 C            2.17917702        2.19271885       -2.31124371
 C            1.97448670       -1.22765380       -2.86652120
 C            2.38207540        0.08872626       -3.32937618
 C           -0.21472038       -2.30196194       -2.67944897
 C            0.64342948       -1.46846919       -3.38179659
 C           -2.54039200       -2.70629786       -1.94861452
 C           -3.52647839       -1.68191407       -1.65397798
 C           -1.58461981       -2.13169191       -2.88326416
 C           -3.36078718        0.64540622       -1.76003685
 C           -3.28546936       -0.55858642       -2.54341688
 C           -2.06855292       -0.81520099       -3.27146186
 C           -2.48561432        2.70368317       -1.06951680
 C           -1.46683761        3.72018823       -1.10747413
 C           -0.26663240        3.44783202       -1.85708183
 C           -2.46501772        1.67751802       -2.00349949
 C            1.03353401        1.99839074       -3.18767817
 C            1.21015305        0.74807146       -3.88207683
 C            0.12420146       -0.19829273       -3.86497670
 C           -1.13603471        0.20403162       -3.43765146
 C           -0.22682470        2.36040647       -2.72371395
 C           -1.28230669        1.42000227       -2.73266485
