   70
C70 / DATE: 7/ 1/2024 / Origin: Program Fullerene / C70 from database
 C            1.12244388       -0.05725041        4.62603452
 C            2.45028060       -0.29603510        4.09381840
 C            2.46590521       -1.64431175        3.55479632
 C            0.30768970       -1.22408477        4.31873837
 C            1.09116338       -2.10821632        3.48966107
 C           -0.95457736       -0.75635971        3.80707304
 C            0.38742897        1.11935310        4.19429702
 C           -0.96335750        0.69594610        3.87756054
 C            1.00441446        2.05616525        3.38060583
 C            2.97151060        0.59116726        3.06977815
 C            2.30046489        1.76966528        2.77427506
 C            3.23739589       -1.62507247        2.32756553
 C            3.47425787       -0.23184782        1.98096996
 C            2.85599083       -2.49058514        1.31535109
 C            0.58864017       -2.52925670        2.25789839
 C            1.50311815       -3.03168778        1.33957599
 C           -1.50239188       -1.35724608        2.68161494
 C           -0.66733720       -2.07824803        1.80961095
 C           -2.64274328       -0.75057354        2.18176817
 C           -1.71716365        1.38701563        2.92915115
 C           -2.78033215        0.68693153        2.35962885
 C            0.20590447        2.76558382        2.39900927
 C           -1.14539830        2.46434896        2.23273872
 C            2.25563351        2.22918093        1.39903462
 C            1.02839234        2.97713823        1.21701716
 C            3.29579277        0.17210575        0.65644298
 C            2.68175884        1.39967245        0.37367980
 C            3.13362591       -2.11487697       -0.05764718
 C            3.41191452       -0.78535530       -0.35682387
 C            1.09642036       -3.25326360       -0.02876473
 C            2.19173204       -2.83763152       -0.89266647
 C           -1.04444319       -2.26685924        0.46189379
 C           -0.20191545       -2.96469631       -0.41452474
 C           -3.10571352       -1.07392162        0.85494600
 C           -2.26187160       -1.75308583       -0.01254737
 C           -3.47420651        1.21271350        1.20118164
 C           -3.84727415        0.07724101        0.37032734
 C           -1.76825783        2.96231838        1.08901909
 C           -3.00593709        2.37386616        0.60909067
 C            0.41179400        2.98977749       -0.03200844
 C           -0.94725875        3.27953612       -0.07103686
 C            2.23595753        1.66177019       -0.91658342
 C            1.00212650        2.30584464       -1.10427447
 C            3.30343280       -0.38063706       -1.68233333
 C            2.82910998        0.96043821       -1.95438061
 C            1.89783120       -2.34120116       -2.15926287
 C            2.64603616       -1.26379032       -2.63481452
 C           -0.45504243       -2.93836910       -1.77980179
 C            0.63170713       -2.59896615       -2.68754624
 C           -2.52476371       -1.69741543       -1.38492456
 C           -1.66464782       -2.32250585       -2.27728856
 C           -3.98628442        0.24439026       -0.99845156
 C           -3.45698967       -0.78315135       -1.87634594
 C           -3.02486995        2.49844436       -0.83900367
 C           -1.71439855        2.97474915       -1.26088966
 C           -3.67074634        1.53232113       -1.60041226
 C            0.29502102        2.15571564       -2.30946219
 C           -1.08338062        2.38071230       -2.34727688
 C            2.21119275        0.95500020       -3.26050414
 C            2.12754676       -0.42907518       -3.70458490
 C            0.89917306        1.54387987       -3.40569100
 C            0.08299242       -1.77103999       -3.75313843
 C           -1.35387613       -1.68407050       -3.54999337
 C            0.78091644       -0.65341442       -4.19127595
 C            0.11517855        0.63961347       -4.22706189
 C           -3.22170707       -0.15928666       -3.16506635
 C           -3.18970428        1.27728134       -2.94694113
 C           -1.86150457        1.73516544       -3.30832750
 C           -2.02640278       -0.52179473       -3.90650348
 C           -1.26739790        0.70013075       -4.13599412
