   70
C70 / DATE: 7/ 1/2024 / Origin: Program Fullerene / C70 from database
 C            1.01705104        0.04848834        5.47991944
 C            0.38733009       -1.15407167        4.96185322
 C            1.44207783       -2.02649206        4.50947921
 C            2.40362279        0.04837185        5.03522273
 C            2.67009553       -1.24238480        4.44385417
 C            2.61324791        1.23117560        4.22611263
 C            0.36024111        1.18754715        4.86778473
 C            1.38638729        2.00899594        4.26788434
 C           -0.63396435       -0.75800014        4.00834601
 C           -0.70215146        0.69056776        4.00894179
 C           -0.74332370       -1.41884777        2.78223846
 C            1.29255183       -2.66575671        3.21964562
 C            0.13577946       -2.46417252        2.46111820
 C            3.13718957       -1.31123219        3.06773664
 C            2.57379841       -2.53687183        2.55300323
 C            2.99052597        1.08704754        2.82346140
 C            3.11387101       -0.17385555        2.25246512
 C            1.14914808        2.49372607        2.92869995
 C            2.26777378        2.10280160        2.09477224
 C           -0.94716553        1.32102744        2.79295973
 C           -0.11468683        2.36425089        2.37191619
 C           -1.44836567       -0.78409714        1.75199476
 C           -1.63466034        0.60062008        1.81043118
 C           -1.63577975       -1.45144813        0.54158860
 C            0.15839451       -2.92998912        1.14837637
 C           -0.88879029       -2.60513682        0.28732876
 C            2.59075858       -2.73073717        1.18978877
 C            1.39355001       -3.26797879        0.59091187
 C            2.90743868       -0.32567078        0.87311844
 C            2.96022292       -1.60885482        0.34083504
 C            1.99644916        1.91827408        0.74376936
 C            2.33401088        0.71437756        0.11900490
 C           -0.22487994        2.73462286        1.04543703
 C            0.90855820        2.61045088        0.23822419
 C           -2.03847009        1.28703279        0.66251063
 C           -1.44837496        2.52845322        0.43748271
 C           -2.31911510       -0.81131297       -0.50156608
 C           -2.54496280        0.56942616       -0.42668067
 C           -2.54824890       -1.49814730       -1.70038145
 C           -0.82642443       -3.10007187       -1.01035816
 C           -1.72170313       -2.57135496       -2.02043949
 C            1.58544061       -3.08726954       -0.82643626
 C            2.37471932       -1.87168956       -0.96164537
 C            0.48144399       -3.22466476       -1.63504841
 C            1.82991226        0.46862441       -1.17814745
 C            1.85677698       -0.82233953       -1.71696543
 C            0.71200933        2.61319382       -1.13250299
 C            1.10481541        1.47180017       -1.84598025
 C           -1.61235151        3.13503461       -0.79285229
 C           -0.40039117        3.31930459       -1.56532373
 C           -2.97620195        1.27169255       -1.55803061
 C           -2.59598934        2.60502762       -1.70399365
 C           -3.19389583       -0.85336416       -2.75389309
 C           -3.45614241        0.56956614       -2.66057718
 C           -2.71154935       -1.11632819       -4.10111951
 C           -0.94982684       -2.51313206       -3.25379614
 C            0.42042541       -2.40436935       -2.81736897
 C            1.01125834       -1.14079573       -2.78471624
 C           -1.37211116       -1.64316266       -4.23405028
 C            0.51663410        1.19751293       -3.09591322
 C            0.43748121       -0.12656429       -3.55046204
 C           -0.52166638       -0.49666169       -4.50583656
 C           -0.75946688        3.27230098       -2.95893348
 C           -2.20271057        3.10944741       -3.00814686
 C           -0.19464177        2.20979712       -3.75260833
 C           -3.31658617        1.13616036       -3.99861942
 C           -2.75011845        0.11811565       -4.85817803
 C           -1.36994639        0.50039805       -5.12594677
 C           -2.49758957        2.31520740       -4.17621740
 C           -1.21873857        1.87638504       -4.72548185
