   70
C70 / DATE: 7/ 1/2024 / Origin: Program Fullerene / C70 from database
 C            1.55053920        0.02281195        4.43289999
 C            0.75105058       -1.16624271        4.20036980
 C            1.49832912       -2.02985842        3.32056560
 C            2.65422730        0.00251806        3.48762096
 C            2.65515229       -1.28621638        2.84139977
 C            2.55075899        1.17594081        2.65382734
 C            0.72622233        1.17365537        4.11856113
 C            1.42778527        1.96468058        3.12858741
 C           -0.56233547       -0.74964882        3.77240633
 C           -0.60330630        0.70246637        3.78348103
 C           -1.15971933       -1.40756276        2.70783473
 C            0.81581385       -2.80957817        2.39519203
 C           -0.52397208       -2.49780827        2.08465558
 C            1.61242956       -3.39193428        1.41962143
 C            2.96272058       -1.37120593        1.48643481
 C            2.71145185       -2.60074172        0.88993067
 C            2.72473606        1.05386065        1.27876592
 C            2.92239402       -0.21095727        0.69267763
 C            2.29029601        2.11181777        0.48307597
 C            0.67158995        2.63578931        2.17864600
 C            1.27927639        2.94969202        0.96491619
 C           -1.28362663        1.35428082        2.75823522
 C           -0.72034926        2.51029475        2.21810605
 C           -2.20137162       -0.76298555        2.05575736
 C           -2.21440261        0.63871633        1.99816476
 C           -2.99772902       -1.51416690        1.21186761
 C           -1.16211944       -3.13049336        0.99812177
 C           -2.40929546       -2.67270559        0.57210917
 C            0.99157606       -4.09175136        0.32397602
 C           -0.41110168       -3.85963232        0.07712167
 C            2.67662262       -2.70995053       -0.55199061
 C            1.72253689       -3.75533673       -0.88545350
 C            2.93651476       -0.32200221       -0.70816692
 C            2.70194431       -1.55663851       -1.32257790
 C            2.60938901        2.10263341       -0.86711497
 C            2.94632814        0.83589884       -1.48616106
 C            1.81407432        2.87221969       -1.80962263
 C            0.61789818        3.81887777        0.10364925
 C            0.81228494        3.70405445       -1.33045413
 C           -1.47836654        3.25390454        1.32476166
 C           -0.79067058        4.07092808        0.33948878
 C           -2.95028382        1.30933616        1.00864046
 C           -2.60195895        2.61288435        0.66497600
 C           -3.83188735       -0.84530616        0.24005695
 C           -3.69620840        0.58554171        0.08499211
 C           -2.64470385       -2.53747703       -0.85828185
 C           -3.58542151       -1.45968898       -1.05468722
 C           -0.57039531       -3.57142369       -1.34084676
 C            0.75403146       -3.50485773       -1.93733642
 C           -1.56634740       -2.67537519       -1.72453659
 C            2.13964248       -1.60482310       -2.59863138
 C            1.02592222       -2.50540172       -2.85435888
 C            2.35163661        0.82014840       -2.81361838
 C            1.56660653        2.03376167       -2.97075317
 C            1.87675183       -0.37757968       -3.32525554
 C            0.28930826        1.96644299       -3.51787276
 C           -0.50084714        3.69645995       -1.95978510
 C           -1.48905482        3.93618266       -0.92741734
 C           -2.56267982        2.97674250       -0.74465057
 C           -0.78391118        2.76764144       -2.95150689
 C           -3.51221526        0.86170609       -1.33089054
 C           -3.24374609       -0.40892015       -1.98527392
 C           -2.78414634        1.98931876       -1.70406545
 C           -1.96473511        1.91965295       -2.83450388
 C           -1.27166831       -1.65518780       -2.64545687
 C           -0.06768984       -1.69380414       -3.34933630
 C            0.51727415       -0.45968850       -3.84282094
 C           -0.27013738        0.67872651       -3.89706647
 C           -2.10547282       -0.53170827       -2.77208997
 C           -1.63323939        0.61907227       -3.39891032
