   70
C70 / DATE: 7/ 1/2024 / Origin: Program Fullerene / C70 from database
 C            1.57475076       -0.09994967        5.04640010
 C            0.68608291       -1.24090094        5.15532759
 C            1.21079011       -2.27770212        4.29321464
 C            2.55640715       -0.38464327        4.00844247
 C            2.31861366       -1.72309450        3.52767739
 C            2.51738612        0.69976289        3.05233754
 C            0.78220476        1.01993632        4.58501026
 C            1.52691931        1.65401252        3.51949770
 C           -0.61103953       -0.85776238        4.61679101
 C           -0.54989100        0.54369086        4.26439659
 C            0.08940543       -2.82051533        3.55230796
 C           -0.95929185       -1.80995834        3.58062251
 C            0.37560745       -3.40802845        2.33580977
 C            2.34255979       -1.97044226        2.15811976
 C            1.65939643       -3.09846651        1.72671324
 C            2.55636281        0.41719178        1.68331020
 C            2.55373097       -0.91918407        1.24405038
 C            2.15513559        1.43207280        0.80308625
 C            0.80912829        2.31353202        2.54198999
 C            1.45658259        2.51961117        1.33761357
 C           -1.09384627        0.96048071        3.05455619
 C           -0.57306078        2.11772237        2.48492923
 C           -1.47537771       -1.33692263        2.37104985
 C           -1.70684460        0.03488267        2.20362722
 C           -0.59440116       -3.28054734        1.27013357
 C           -1.42859660       -2.16844928        1.24831005
 C            1.51694373       -3.32733438        0.31266486
 C            0.11770134       -3.63016397        0.06106522
 C            2.48559231       -1.18426507       -0.13544353
 C            2.15739383       -2.47952404       -0.57444413
 C            2.05966110        1.15418263       -0.56253301
 C            2.42018730       -0.10608623       -1.03174272
 C            1.47540616        2.08228840       -1.43369463
 C            0.86150272        3.43535472        0.48957965
 C            1.05445354        3.30460387       -0.93515811
 C           -1.24773639        2.67804793        1.40493853
 C           -0.55458634        3.65277256        0.69085773
 C           -2.19296893        0.50129409        0.98044164
 C           -2.17505798        1.87530383        0.72978425
 C           -1.84934531       -1.68443110        0.01050275
 C           -2.36354426       -0.38931146       -0.08415202
 C           -0.40616147       -3.23262465       -1.15807068
 C           -1.52283624       -2.39460481       -1.15185441
 C            1.84615238       -2.68613187       -1.91171016
 C            0.49490544       -3.13175090       -2.21462140
 C            2.41538340       -0.33583286       -2.40583943
 C            2.20910716       -1.68281399       -2.88143674
 C            1.07145913        1.68561250       -2.71130338
 C            1.65619885        0.55555319       -3.26923463
 C           -0.09400388        2.21766466       -3.28308216
 C           -0.06775496        3.96978755       -1.56756521
 C           -1.09468168        4.15748037       -0.55055267
 C           -0.69239521        3.33640034       -2.70949087
 C           -2.80748631        2.35716475       -0.41375128
 C           -2.32064996        3.57291597       -1.04274400
 C           -2.12091293        3.28898630       -2.44950583
 C           -2.89702457        0.06226138       -1.29669952
 C           -3.14946636        1.42458203       -1.47431572
 C           -2.82165450        2.05760985       -2.75024377
 C           -2.05547659       -1.98472873       -2.36708851
 C           -2.83106528       -0.75923489       -2.42115305
 C            0.07891726       -2.50588516       -3.45375779
 C            1.16994045       -1.65095608       -3.89737053
 C            0.89650037       -0.25902673       -4.20622452
 C           -1.22655601       -2.04716755       -3.56465229
 C           -0.89293765        1.40647731       -4.08881994
 C           -2.30741908        1.26450798       -3.76337965
 C           -2.59289462       -0.15233743       -3.71801677
 C           -0.40205958        0.11334708       -4.52664256
 C           -1.47944504       -0.84631638       -4.33886405
