   70
C70 / DATE: 7/ 1/2024 / Origin: Program Fullerene / C70 from database
 C            1.57009821        0.01132342        4.67799963
 C            0.75784797       -1.16299600        4.42239687
 C            1.37659893       -1.92113092        3.34820001
 C            2.68866057       -0.01752508        3.75512469
 C            2.57798209       -1.21535250        2.93989030
 C            2.73607064        1.26456764        3.08252835
 C            0.76626550        1.17774783        4.35415420
 C            1.46664176        1.93122468        3.33515754
 C           -0.61042185       -0.72064294        4.24775955
 C           -0.57843797        0.72384722        4.06824574
 C           -1.42948675       -1.46677787        3.41357502
 C            0.56261502       -2.47758721        2.36636253
 C           -0.82212286       -2.45955011        2.53792856
 C            1.07679735       -2.66739222        1.08497807
 C            2.87334003       -1.12877320        1.58274674
 C            2.23653004       -1.99134169        0.69237919
 C            3.24958976        1.29814547        1.79531042
 C            3.44808173        0.04123748        1.08683068
 C            2.67956206        2.23109785        0.84132618
 C            0.74855027        2.43621079        2.25441942
 C            1.45218718        2.82646083        1.11523059
 C           -1.26426211        1.27647434        2.99081008
 C           -0.63816078        2.23417128        2.17766363
 C           -2.44367448       -0.77917696        2.63465109
 C           -2.39062972        0.60612157        2.51548232
 C           -1.68475174       -2.60462375        1.37451092
 C           -2.70342308       -1.57223485        1.44313783
 C            0.24601949       -3.20109692        0.10202836
 C           -1.11549958       -2.90027807        0.14687432
 C            0.81353810       -3.55732425       -1.11457869
 C            2.52791832       -1.89150240       -0.66683702
 C            2.02984120       -2.87258701       -1.51594139
 C            3.36479778        0.32577759       -0.33799039
 C            2.92130362        1.69946387       -0.49068068
 C            2.85019645       -0.63831433       -1.19175915
 C            2.02843023        2.01505942       -1.50984197
 C            0.76567953        3.41725848        0.06545130
 C            1.13259838        3.06349673       -1.29726987
 C           -1.36118286        2.81899653        1.13345669
 C           -0.68050754        3.50056352        0.12584830
 C           -3.15173058        1.19846078        1.51912383
 C           -2.68370531        2.43550620        0.92839984
 C           -3.09819747       -0.91221765        0.28182969
 C           -3.63611361        0.36196384        0.43262551
 C           -1.75815652       -2.45510191       -1.00815187
 C           -2.54940929       -1.30326805       -0.95010362
 C           -0.05073950       -3.64071196       -2.27550005
 C           -1.30552947       -2.91322619       -2.23959881
 C            1.93037196       -2.58055103       -2.93316312
 C            0.70721225       -3.18805421       -3.42676972
 C            2.27736516       -0.22614149       -2.39650316
 C            1.77227059        1.07450057       -2.51333003
 C            1.93929442       -1.18983518       -3.34460700
 C            0.81203817        1.35451272       -3.48440203
 C           -0.05520180        3.19126102       -2.12369021
 C           -1.17843847        3.47834660       -1.24405697
 C           -0.22050864        2.33766464       -3.20447897
 C           -3.26166413        2.51599502       -0.40302662
 C           -3.81184615        1.20719613       -0.72455790
 C           -2.42503680        2.92954062       -1.51304832
 C           -2.64147985       -0.47047301       -2.07859776
 C           -1.50962236        1.69870814       -3.43543898
 C           -3.23915660        0.78284407       -1.98063393
 C           -2.56162609        1.92844374       -2.55978277
 C           -1.32738087       -2.00816652       -3.37345881
 C           -0.06426667       -2.14829649       -4.07903573
 C            0.78419274       -0.97839679       -4.20340091
 C            0.17168850        0.26293330       -4.19317912
 C           -1.84640324       -0.73179793       -3.19539982
 C           -1.24340126        0.33532276       -3.86562266
