   70
C70 / DATE: 7/ 1/2024 / Origin: Program Fullerene / C70 from database
 C            1.46402888        0.01799358        4.88165413
 C            0.68266851       -1.18634461        4.65932266
 C            1.57347137       -2.16141671        4.08682254
 C            2.65932607       -0.08475999        4.06247021
 C            2.80780540       -1.47351824        3.71409409
 C            2.54739816        0.88728245        2.99157167
 C            0.69041918        1.13175874        4.37518518
 C            1.47512647        1.79624811        3.35196163
 C           -0.50381878       -0.81319643        3.91288875
 C           -0.61360778        0.63213460        3.98258194
 C           -0.80683709       -1.44587156        2.70430315
 C            1.14095440       -2.88841620        2.91150559
 C           -0.03529173       -2.52543520        2.24239493
 C            3.06401576       -1.81661025        2.33078247
 C            2.34398939       -3.05355932        2.12701537
 C            2.65901382        0.48574836        1.65776284
 C            2.98897828       -0.83984814        1.32913645
 C            2.14241830        1.32756606        0.67352713
 C            0.76913004        2.40534831        2.32662571
 C            1.31266758        2.39479936        1.04444328
 C           -1.23823761        1.28648058        2.93266600
 C           -0.61695405        2.42559815        2.43322090
 C           -1.67960537       -0.80257956        1.82756816
 C           -2.01416413        0.54058277        2.04891387
 C           -1.99627313       -1.40683126        0.61529248
 C           -0.19277003       -2.97793388        0.92307969
 C           -1.13270073       -2.36317478        0.07972363
 C            2.19203636       -3.48267987        0.83180450
 C            0.84312355       -3.73562721        0.37364776
 C            2.84758932       -1.28336553        0.00499617
 C            2.77138238       -2.66089992       -0.20861021
 C            2.23560484        0.95170712       -0.66254914
 C            2.39649974       -0.39615290       -0.98594608
 C            1.86747382        1.86154819       -1.64406191
 C            0.66014058        3.14131098        0.06034350
 C            1.03962770        2.99434334       -1.27190118
 C           -1.31460770        3.17363568        1.50347698
 C           -0.57705626        3.70641896        0.37324180
 C           -2.75324230        1.23882900        1.09099148
 C           -2.53990562        2.61240786        0.96593593
 C           -2.98548324       -0.84308280       -0.17866545
 C           -3.37249205        0.53537740        0.06040284
 C           -2.95455041       -1.06059787       -1.61118636
 C           -1.13584409       -2.61244425       -1.30679924
 C           -1.93690115       -1.83819648       -2.15199587
 C            0.96252003       -3.85277077       -1.05914082
 C            2.19635623       -3.16511042       -1.43170000
 C           -0.08253739       -3.31084831       -1.89061051
 C            1.99892160       -0.86536373       -2.25336268
 C            1.85324179       -2.23199486       -2.47513043
 C            0.59758078       -2.70669272       -3.01646370
 C            1.41008215        1.37185833       -2.92913543
 C            1.36114016       -0.00019303       -3.14790555
 C            0.07721266        3.22069846       -2.34366984
 C            0.31533101        2.22581592       -3.37449144
 C           -1.54858251        3.96041852       -0.67500597
 C           -2.77897954        3.27468397       -0.30345624
 C           -1.22614534        3.59321296       -2.03761534
 C           -3.60359340        1.16934773       -1.23219708
 C           -3.35822158        0.17850053       -2.26520353
 C           -3.21172296        2.48664474       -1.43804323
 C           -2.34083407        2.81478718       -2.55703318
 C           -0.76257485        1.66947431       -4.05295638
 C           -2.74814088        0.56288476       -3.45338213
 C           -2.11304443        1.86889405       -3.54844311
 C           -1.51667474       -1.61161557       -3.46549426
 C           -0.12486480       -1.83823628       -3.80618608
 C            0.43570925       -0.52353311       -4.05503309
 C           -1.89881223       -0.38571917       -4.14314767
 C           -0.66791358        0.30027989       -4.51483230
