   70
C70 / DATE: 7/ 1/2024 / Origin: Program Fullerene / C70 from database
 C            1.34952368       -0.03306448        4.45132080
 C            2.56585117       -0.34576138        3.73813781
 C            2.51870811       -1.75242270        3.37319090
 C            0.48867110       -1.20212012        4.41065926
 C            1.24463418       -2.29168265        3.81808710
 C           -0.77290726       -0.80847559        3.79515794
 C            0.56914384        1.09161997        3.99093715
 C           -0.78047950        0.63145652        3.71087590
 C            1.12716772        1.99754135        3.09898158
 C            2.87862991        0.41773864        2.54243464
 C            2.13237182        1.55127019        2.22198201
 C            2.87695503       -1.86347530        1.96693844
 C            3.19012909       -0.52877576        1.48800422
 C            2.15060649       -2.72509016        1.14273137
 C            0.57421945       -3.16414295        2.97698050
 C            1.21060841       -3.56956530        1.73647279
 C           -1.25904368       -1.55709438        2.73356027
 C           -0.80690544       -2.86939475        2.63245814
 C           -1.78060389       -0.90193805        1.60305243
 C           -1.46808099        1.26103114        2.68152137
 C           -1.94113762        0.49791269        1.60318300
 C            0.25808025        2.98216483        2.65454145
 C           -1.13140494        2.59059216        2.46108525
 C            0.64628562        3.79303028        1.52418535
 C            2.13383383        1.98398485        0.88934540
 C            1.56383018        3.21239041        0.57230541
 C            2.86257906       -0.21196233        0.18066307
 C            2.40092673        1.06892091       -0.13374141
 C            2.07610549       -2.44937694       -0.23351206
 C            2.63026249       -1.25044071       -0.70922445
 C            1.23746527       -3.21956888       -1.06044533
 C            0.15593831       -4.14024722        0.92889882
 C           -1.10914268       -3.63846277        1.45147746
 C            0.16228348       -3.88640381       -0.49060048
 C           -2.12455037       -1.63788950        0.45767538
 C           -1.79711825       -2.98671505        0.36258491
 C           -1.17459249       -3.45665879       -0.85712724
 C           -2.42602679       -0.96533638       -0.72216594
 C           -2.41443855        1.14624657        0.44696934
 C           -2.78584173        0.37956702       -0.66606876
 C           -1.62199903        3.26265023        1.28433753
 C           -0.56546459        4.14101566        0.81135712
 C           -2.34192057        2.54761545        0.33963933
 C            1.00479364        3.41701870       -0.75569998
 C           -0.25893223        4.12558222       -0.60503209
 C            2.00723464        1.35283901       -1.44729389
 C            1.11255778        2.39261230       -1.69328750
 C            2.59439253       -0.94282386       -2.05994798
 C            2.23601171        0.41200198       -2.44422336
 C            1.09490175       -2.87995773       -2.40142805
 C            1.94175474       -1.85485053       -2.96627691
 C           -1.31448988       -2.68523772       -2.00035966
 C           -2.17184974       -1.58845040       -1.95575243
 C           -0.25341489       -2.66712506       -2.90700373
 C           -2.37881918       -0.89072698       -3.13749467
 C           -3.29846907        0.99644350       -1.80525669
 C           -3.05709873        0.38767970       -3.09616877
 C           -2.46077157        3.14377960       -0.91168937
 C           -1.29166272        3.80872989       -1.46967517
 C           -3.08948257        2.41324725       -1.98524902
 C            0.14831834        2.26196400       -2.70322616
 C           -2.25351296        1.32288050       -3.87147541
 C           -0.97567940        3.08943473       -2.68382082
 C           -2.24410013        2.57714184       -3.15866063
 C            1.31079099        0.33416423       -3.56010252
 C            1.14721371       -1.07120355       -3.89747646
 C           -0.19282505       -1.62941069       -3.92689361
 C           -1.26295977       -0.75607265       -4.05654087
 C            0.19163999        1.16290295       -3.57276173
 C           -0.98869425        0.66675383       -4.13605031
