   70
C70 / DATE: 7/ 1/2024 / Origin: Program Fullerene / C70 from database
 C            1.35654573        0.08336736        5.24963300
 C            0.55880499       -1.06232170        4.85799802
 C            1.41436989       -1.94772610        4.10336161
 C            2.58028382        0.05214498        4.46350595
 C            2.63319514       -1.21872986        3.78024290
 C            2.61443345        1.26152929        3.66930235
 C            0.62554678        1.28095565        4.87212796
 C            1.53760024        2.12564756        4.13793098
 C           -0.64694841       -0.57089454        4.21871358
 C           -0.60356387        0.88180653        4.21103755
 C           -1.13070002       -1.20531278        3.08422470
 C            0.90037435       -2.49220449        2.86350645
 C           -0.42399993       -2.27103006        2.50451553
 C            2.77143722       -1.22886805        2.33476139
 C            1.90223224       -2.27972444        1.84391784
 C            2.88221172        1.19944058        2.29789762
 C            2.83451407       -0.03138386        1.61917339
 C            2.72803532        2.37761998        1.57734203
 C            0.99203215        3.01906746        3.23243253
 C            1.80554172        3.37625578        2.09161984
 C           -0.99950076        1.56534390        3.05432981
 C           -0.35472161        2.75821071        2.72422815
 C           -1.99563016       -0.47760507        2.27769188
 C           -1.72189280        0.87619425        2.07023842
 C           -2.70560137       -1.17885220        1.32253173
 C           -0.79840667       -2.66332603        1.21988984
 C           -2.10948597       -2.40926494        0.84654117
 C            1.46220979       -2.20670927        0.53223935
 C            0.18917418       -2.69045479        0.22536345
 C            2.54673396       -0.07210630        0.24615415
 C            2.02193261       -1.24902040       -0.30751513
 C            2.55255641        2.32691771        0.14072046
 C            2.56971687        1.09984712       -0.51658751
 C            0.90500837        3.73757779        1.01873046
 C           -0.41324574        3.24711681        1.35682957
 C            1.49577754        3.25919009       -0.20614137
 C           -1.87645360        1.42781892        0.78525978
 C           -1.09784821        2.51357989        0.39370369
 C           -3.19701830       -0.47385024        0.16075686
 C           -2.59572343        0.72965584       -0.18956797
 C           -2.49498630       -2.56997501       -0.53683381
 C           -3.41049065       -1.48492073       -0.85389116
 C           -0.17963178       -2.73520994       -1.12183684
 C           -1.52523205       -2.91305198       -1.46815124
 C            1.67422922       -1.28760982       -1.65485976
 C            0.71547726       -2.21888762       -2.06303537
 C            2.06570998        1.06405145       -1.82104133
 C            1.93397552       -0.17280007       -2.44958794
 C            0.65482400        2.86826725       -1.22686861
 C           -0.69029235        2.60563632       -0.94012609
 C            1.23726551        2.11691150       -2.22613709
 C           -2.42249729        1.03968883       -1.54641796
 C           -1.45746054        1.97971233       -1.92905257
 C           -3.50854895       -1.08543356       -2.17394673
 C           -3.05643627        0.25444512       -2.51750784
 C           -1.89829367       -2.87632712       -2.80921415
 C           -2.98812674       -1.98941663       -3.18480985
 C            0.46310524       -2.39087536       -3.41715567
 C           -0.87301314       -2.76740476       -3.82830217
 C            1.57805676       -0.19705647       -3.79696612
 C            0.93493636       -1.38035434       -4.34058983
 C            0.50168270        1.98627160       -3.38694316
 C           -0.93993077        1.95090804       -3.22985290
 C            0.87718583        0.95393322       -4.32482245
 C           -2.52847163        0.20138216       -3.87231029
 C           -2.54334318       -1.18869094       -4.30753687
 C           -1.32619825       -1.79813224       -4.81481841
 C           -0.20113480       -0.94611828       -5.14216077
 C           -1.46562082        1.02364363       -4.21615328
 C           -0.33626691        0.48751035       -4.96771174
