   70
C70 / DATE: 7/ 1/2024 / Origin: Program Fullerene / C70 from database
 C            1.31388294        0.12851775        5.10478517
 C            0.54813755       -1.05195902        4.74531846
 C            1.45388351       -1.97349869        4.10072562
 C            2.56696034        0.07425056        4.37035453
 C            2.71253113       -1.27488031        3.87415959
 C            2.56742749        1.16801130        3.41310066
 C            0.58265350        1.28768877        4.62992987
 C            1.47499646        2.05429048        3.78399299
 C           -0.62644860       -0.61652477        4.01370296
 C           -0.67257219        0.83324872        4.05537161
 C           -0.98205526       -1.24766203        2.82645988
 C            1.05475034       -2.56064761        2.83589993
 C           -0.18790013       -2.26700920        2.28774780
 C            3.05538189       -1.45858183        2.47961630
 C            2.20506833       -2.51363792        1.96001876
 C            2.81016248        0.90667446        2.05876475
 C            3.29144721       -0.35331466        1.66690101
 C            2.34149990        1.81470960        1.09579878
 C            0.89794408        2.82889371        2.79494500
 C            1.52894909        2.86899753        1.49104053
 C           -1.17076582        1.51276653        2.94496054
 C           -0.52867225        2.68088010        2.54623045
 C           -1.87067832       -0.59010517        1.98143089
 C           -1.91552250        0.80974755        1.99468350
 C           -2.37806176       -1.28239888        0.88458515
 C           -0.39904038       -2.61898477        0.95934443
 C           -1.64924062       -2.37047857        0.40107485
 C            1.99258296       -2.55566757        0.58571494
 C            0.70131410       -2.78769319        0.10816302
 C            3.46181211       -0.61951664        0.31481135
 C            2.87091321       -1.83927142       -0.21885215
 C            2.45635630        1.52513134       -0.26490819
 C            3.21226087        0.42638848       -0.65145339
 C            1.62903286        2.16424058       -1.20267672
 C            0.52734249        3.35991503        0.56958892
 C           -0.76943388        3.19137861        1.21180293
 C            0.63275287        3.05305480       -0.78061957
 C           -2.43117432        1.49118708        0.88668092
 C           -1.81242262        2.67090887        0.45472940
 C           -3.30357120       -0.63943211        0.07001044
 C           -3.30113368        0.81068975        0.03647209
 C           -3.55611025       -1.12584129       -1.27481270
 C           -1.91278405       -2.89138245       -0.86136881
 C           -2.94486888       -2.29968221       -1.69270680
 C            0.48343770       -2.82136847       -1.26971712
 C           -0.77922799       -3.19991038       -1.71177771
 C            2.52288741       -1.59024165       -1.60709307
 C            2.93123545       -0.23001275       -1.91428201
 C            1.31411603       -2.06723201       -2.10892816
 C            1.66474296        1.75866480       -2.53904731
 C            2.23551327        0.46772710       -2.88320103
 C            0.50108467        1.95959240       -3.38939051
 C           -0.52182647        3.20058892       -1.54627692
 C           -1.80592821        2.98536407       -0.90112740
 C           -0.59189895        2.64737587       -2.88561503
 C           -3.43862056        1.22284284       -1.35112747
 C           -3.62106063        0.02910880       -2.16211261
 C           -2.66026253        2.26662033       -1.82621671
 C           -1.93600827        2.12340140       -3.08136106
 C           -3.06907303       -0.03104275       -3.43923356
 C           -2.13320695        0.99570887       -3.87066061
 C           -2.53391355       -2.44873453       -3.07786282
 C           -1.16235290       -2.93421488       -3.08250488
 C           -2.60210307       -1.30197487       -3.96333704
 C            0.80215388       -1.49605349       -3.28023111
 C            1.25348435       -0.23982753       -3.68533995
 C            0.29716227        0.74453822       -4.16410109
 C           -0.99132345        0.33232384       -4.48342916
 C           -0.36188552       -2.00427206       -3.84859458
 C           -1.27471322       -1.09237337       -4.51895075
