   70
C70 / DATE: 7/ 1/2024 / Origin: Program Fullerene / C70 from database
 C            1.18653897        0.00252375        4.20592030
 C            2.51081921       -0.30620488        3.71812443
 C            2.55450238       -1.73073328        3.44723125
 C            0.37021850       -1.19606886        4.07162489
 C            1.18876903       -2.22291968        3.46521350
 C           -0.86249322       -0.81475468        3.41569850
 C            0.46067766        1.09107221        3.58430443
 C           -0.88925602        0.63499886        3.34959947
 C            1.06077322        1.85741815        2.59401786
 C            2.98657571        0.37800186        2.53251275
 C            2.25245328        1.42539312        1.99159167
 C            3.33474596       -1.92928062        2.24064441
 C            3.52846667       -0.61965377        1.62530487
 C            2.99841565       -2.99819157        1.42548394
 C            0.71709733       -2.90162088        2.34535975
 C            1.65114688       -3.54418471        1.52853525
 C           -1.30386725       -1.53457896        2.30936314
 C           -0.57002485       -2.63918610        1.85423376
 C           -2.25346725       -0.93604517        1.47337037
 C           -1.60529976        1.22222823        2.31768769
 C           -2.51393636        0.43429285        1.62560169
 C            0.24187770        2.72075127        1.86935970
 C           -1.11222547        2.37996595        1.70252950
 C            0.86780427        3.52265183        0.92588808
 C            2.47690895        1.74238462        0.65659825
 C            1.96607898        2.93970924        0.18343111
 C            3.33821970       -0.46434648        0.24655739
 C            2.73592894        0.70293089       -0.23923289
 C            3.31638154       -2.90259421        0.01643770
 C            3.42979949       -1.58140272       -0.57568131
 C            1.26385600       -4.02625388        0.21304543
 C            2.30248279       -3.63768383       -0.71983104
 C           -1.02065454       -3.33314342        0.73688912
 C           -0.05887142       -3.91534321       -0.18226426
 C           -2.76572470       -1.64500940        0.37835852
 C           -2.09930940       -2.78050371       -0.05825384
 C           -3.56257681       -0.99189552       -0.55409166
 C           -3.42450541        1.07616344        0.80360945
 C           -4.05881490        0.33252769       -0.25916455
 C           -1.88929276        2.99725726        0.70651174
 C           -3.07996357        2.39101255        0.29165451
 C            0.06977557        4.29271189        0.00205291
 C           -1.34402424        4.00668373       -0.08661271
 C            1.62713466        3.04593462       -1.21881722
 C            0.64179353        4.10587670       -1.32321169
 C            2.14448030        0.72069618       -1.51467766
 C            1.47786973        1.87234854       -1.95455622
 C            2.69820208       -1.60322758       -1.82479239
 C            1.93832090       -2.84472851       -1.87764813
 C            2.09728896       -0.44149796       -2.28940075
 C           -0.37334053       -3.42099504       -1.51783004
 C           -1.71500012       -2.86161106       -1.46000998
 C            0.60816594       -2.79582563       -2.28863468
 C           -3.15480698       -1.01851749       -1.95073433
 C           -2.07896532       -1.82442788       -2.31558317
 C           -3.96967232        1.12378097       -1.47376879
 C           -3.45680700        2.42989659       -1.11699073
 C           -3.25255874        0.34007281       -2.46400484
 C           -1.68975886        4.05671352       -1.49563130
 C           -0.45271092        3.94625452       -2.25102041
 C           -2.61832084        3.07016436       -2.01377216
 C            0.48776309        1.77682774       -2.94637715
 C           -2.16829460        0.90478976       -3.13350408
 C           -0.52733896        2.72688873       -3.02504092
 C           -1.90888144        2.27321369       -3.00903460
 C            1.07687238       -0.58571492       -3.21773002
 C            0.23926069       -1.77233998       -3.15456509
 C           -1.14854590       -1.33995587       -3.23019467
 C            0.22890565        0.54395489       -3.52619247
 C           -1.14706188        0.07234843       -3.58549158
