   70
C70 / DATE: 7/ 1/2024 / Origin: Program Fullerene / C70 from database
 C            1.15363143        0.00072909        4.59158617
 C            2.35708351       -0.34624662        3.88090378
 C            2.22180040       -1.73401896        3.46025207
 C            0.33033819       -1.19878103        4.64157204
 C            0.82923558       -2.08261105        3.60818885
 C           -1.04452939       -0.76613480        4.56861040
 C            0.31795826        1.05251779        4.05350651
 C           -1.02884648        0.68082899        4.41675318
 C            0.55123835        1.53909434        2.76188096
 C            2.70105476        0.40961768        2.69490795
 C            1.76989247        1.27264134        2.11567216
 C            2.80587104       -1.82911779        2.14635811
 C            3.38148597       -0.53206667        1.83539944
 C            2.10314534       -2.47226409        1.13653268
 C            0.06123715       -2.29997768        2.46021443
 C            0.70028900       -2.53190243        1.22515151
 C           -1.87823691       -1.28767062        3.50455796
 C           -1.32653536       -2.09529007        2.51292088
 C           -2.08577595        1.02281961        3.49936997
 C           -2.75765681       -0.20493831        3.10581729
 C           -0.51302197        2.09809486        2.03754575
 C           -1.83382399        1.95061384        2.50565384
 C           -0.27669647        2.58643736        0.74477677
 C            1.91605094        1.56610406        0.75706242
 C            0.89371311        2.23113034        0.07486488
 C            3.52368448       -0.21530163        0.49488002
 C            2.97341255        0.98457032        0.04131983
 C            2.70130389       -2.42201519       -0.11714816
 C            3.56875992       -1.28768752       -0.38929770
 C            1.90231027       -2.63254300       -1.30261449
 C           -0.06719789       -2.67282001        0.05899082
 C            0.52337687       -2.54118221       -1.19778160
 C           -2.09542494       -2.31771400        1.38045476
 C           -1.44948967       -2.70561262        0.14473036
 C           -3.35552649       -0.24640305        1.84516388
 C           -3.16693231       -1.38230933        1.05577815
 C           -2.88212165        2.14506871        1.62445835
 C           -3.64640003        0.97154013        1.22700422
 C           -1.31429388        3.16925139        0.01852073
 C           -2.67341821        2.96718607        0.46109398
 C           -1.31751196        3.05368212       -1.42940198
 C            0.99329282        2.44538653       -1.30288876
 C           -0.16558407        2.60672610       -2.06395613
 C            3.16734907        1.33251872       -1.29246049
 C            2.19325954        2.18252895       -1.94742046
 C            3.53409022       -1.02814993       -1.81435474
 C            2.58484980       -1.96950090       -2.39930095
 C            3.54920424        0.29417889       -2.23903420
 C            1.85110329       -1.60602623       -3.51886786
 C           -0.23405309       -2.10213373       -2.29230970
 C            0.40321055       -1.73697688       -3.48113346
 C           -2.23343394       -2.17463252       -0.95384002
 C           -3.24471944       -1.28802152       -0.39469985
 C           -1.59157999       -1.81209498       -2.13144764
 C           -3.82468156        1.03765414       -0.21410984
 C           -3.41262905        2.36672838       -0.63418132
 C           -2.60353587        2.49762192       -1.82648721
 C           -3.49292450       -0.06045357       -1.00343172
 C           -2.18314960       -0.83887453       -2.93156816
 C           -2.61873629        1.46148778       -2.74438875
 C           -3.06613863        0.14020340       -2.31662066
 C           -0.27934940        1.95674169       -3.29737014
 C           -0.15824346       -0.66690216       -4.29006722
 C           -1.45714793        1.27323194       -3.59164387
 C           -1.38624824       -0.13965152       -3.92356686
 C            2.16353236        1.82216936       -3.35259626
 C            2.97579442        0.62892462       -3.52760205
 C            2.16929269       -0.36638141       -4.20842288
 C            0.87584907        1.58296286       -3.97631825
 C            0.91789384        0.26341520       -4.58612172
