   70
C70 / DATE: 7/ 1/2024 / Origin: Program Fullerene / C70 from database
 C            1.49112927        0.07289103        4.82185359
 C            0.71546573       -1.15039737        4.73793865
 C            1.29124824       -1.97513906        3.69150216
 C            2.60349004       -0.05484575        3.90020440
 C            2.58678069       -1.40226317        3.36269537
 C            2.53825895        1.05151770        2.96256072
 C            0.64571329        1.15402735        4.34542500
 C            1.26086069        1.71465160        3.16611292
 C           -0.67224751       -0.77053997        4.60596630
 C           -0.69797978        0.64026216        4.22689064
 C           -1.50731297       -1.63607407        3.91899403
 C            0.45581791       -2.44351402        2.67080142
 C           -0.91451643       -2.50470498        2.90254190
 C            0.93623182       -2.51030712        1.35897683
 C            3.07859299       -1.58305899        2.08342141
 C            2.30203120       -2.37911365        1.15340747
 C            2.96387788        0.82970800        1.65548277
 C            3.50817448       -0.40995743        1.33857388
 C            2.37297659        1.56054044        0.62768649
 C            0.47692118        1.97858512        2.05084191
 C            1.12324983        2.15182918        0.84026922
 C           -1.48353299        1.02716342        3.14032962
 C           -0.89626554        1.69425978        2.04748099
 C           -2.70422297       -1.07080475        3.34117244
 C           -2.66470123        0.32594607        2.94693396
 C           -1.82005768       -2.55197141        1.76866890
 C           -3.01647865       -1.84483656        2.15797094
 C            0.05808751       -2.38040347        0.26845703
 C           -1.32284941       -2.34731022        0.48304014
 C            0.55721826       -2.23605557       -1.03663967
 C            2.78522060       -2.04542744       -0.16394972
 C            3.54968333       -0.81094779       -0.05310316
 C            1.94501616       -2.17948586       -1.25593830
 C            2.82828907        1.38321647       -0.68148787
 C            3.37257518        0.14547458       -1.04806140
 C            2.34272246        2.24828515       -1.66008271
 C            0.40395964        2.63704297       -0.23640025
 C            1.11642138        2.97334217       -1.38014739
 C           -1.62922776        1.88844296        0.85614409
 C           -0.97467534        2.38858097       -0.29131098
 C           -3.34455878        0.42400313        1.68097732
 C           -3.58093173       -0.93003111        1.20236621
 C           -2.92780005        1.36507702        0.74707768
 C           -2.16796683       -1.82802933       -0.50972249
 C           -3.34709563       -1.15004337       -0.14147660
 C           -0.33592844       -1.97385777       -2.09052170
 C           -1.68245565       -1.70997866       -1.81937608
 C            0.14721359       -1.74205853       -3.38142992
 C            2.42142564       -1.61564573       -2.43093574
 C            3.13140566       -0.35164021       -2.32655633
 C            1.56384844       -1.55864662       -3.58501415
 C            2.29723242        1.82726377       -3.05053970
 C            2.63963645        0.52329308       -3.37202836
 C            1.76089163       -0.26521837       -4.22309994
 C            0.41609145        3.17131382       -2.62451435
 C            1.12246100        2.43089381       -3.65880606
 C           -1.66694731        2.50697702       -1.51009717
 C           -0.97857016        2.80641548       -2.68576803
 C           -3.49174315        1.22661171       -0.51556956
 C           -3.79036128       -0.12569729       -0.95750920
 C           -2.92047961        1.92853301       -1.63838246
 C           -2.46287492       -1.07758923       -2.79330143
 C           -3.53047031       -0.20742836       -2.36834313
 C           -3.20377257        1.13177960       -2.82165704
 C           -0.52412847       -0.77526526       -4.23133632
 C            0.44969917        0.25042498       -4.57786932
 C            0.15415765        1.58962204       -4.34422214
 C           -1.16309716        1.95671448       -3.85509067
 C           -1.81931220       -0.40987930       -3.90990137
 C           -2.17151492        1.00347773       -3.83257570
