   70
C70 / DATE: 7/ 1/2024 / Origin: Program Fullerene / C70 from database
 C            1.67280762        0.04438420        4.77525241
 C            0.82922296       -1.13620674        4.69764237
 C            1.37228517       -2.00709586        3.66955604
 C            2.66567466       -0.05475584        3.72353545
 C            2.58836017       -1.38722785        3.15881771
 C            2.49074547        1.06682247        2.82200445
 C            0.84199767        1.19676691        4.48383486
 C            1.32912750        1.81614106        3.25933964
 C           -0.54526235       -0.69316093        4.58124218
 C           -0.54094297        0.76495313        4.53259202
 C           -1.40365291       -1.40671414        3.75293276
 C            0.51102513       -2.64278291        2.77248322
 C           -0.86624596       -2.42388327        2.85626067
 C            1.04432990       -3.12691114        1.58001814
 C            2.88620817       -1.54155304        1.81065052
 C            2.34807742       -2.64622813        1.16066641
 C            2.64891289        0.82974350        1.46785407
 C            3.16983368       -0.39752453        1.05914757
 C            1.92262695        1.59349893        0.55466094
 C            0.40007839        2.24616121        2.31136870
 C            0.71406026        2.17294885        0.94654134
 C           -1.44505971        1.41930719        3.71019418
 C           -0.93181210        2.32970356        2.69554497
 C           -2.46887024       -0.71162820        3.04952592
 C           -2.53201262        0.67239961        3.10109763
 C           -1.66958745       -2.41539290        1.64034417
 C           -2.68120393       -1.38209533        1.77601424
 C            0.20735056       -3.19706963        0.39061714
 C           -1.05053935       -2.61238013        0.40876785
 C            2.40272280       -2.71694693       -0.28769712
 C            1.06288931       -3.01877983       -0.76677623
 C            3.50909174       -0.53991456       -0.27783052
 C            3.15027370       -1.76999622       -0.96833748
 C            2.23854806        1.48830528       -0.79585223
 C            3.20200324        0.55604783       -1.17879080
 C            1.37402946        2.00979202       -1.75851060
 C           -0.25104372        2.49652167       -0.02279913
 C            0.07465193        2.39621791       -1.38840261
 C           -1.94838034        2.44856347        1.67986286
 C           -2.92605565        1.39783075        1.91074807
 C           -1.58311966        2.70601727        0.36577129
 C           -3.03509144       -0.64141635        0.65382507
 C           -3.39131183        0.70661628        0.80008543
 C           -1.50773804       -1.91453899       -0.71396160
 C           -2.65217753       -1.12206906       -0.60172551
 C            0.57902185       -2.34320916       -1.88173663
 C           -0.74421739       -1.88762910       -1.89262286
 C            2.74455697       -1.40080783       -2.31237825
 C            3.14401864       -0.01649482       -2.50586319
 C            1.49873166       -1.81116475       -2.78609687
 C            1.71230457        1.85316845       -3.10516124
 C            2.51340234        0.70444550       -3.50215839
 C            0.69826303        2.03318784       -4.12018769
 C           -0.92633595        2.56091868       -2.36564351
 C           -0.66591320        2.22572545       -3.69311958
 C           -2.58876228        2.53640071       -0.57443306
 C           -3.55434826        1.46891936       -0.34851619
 C           -2.25877826        2.54815739       -1.97737237
 C           -3.19975330       -0.54236864       -1.73655818
 C           -3.75102733        0.78722524       -1.60752205
 C           -3.15082452        1.61152780       -2.63535522
 C           -1.25246521       -1.27972922       -3.04752407
 C           -1.48363858        1.19471170       -4.32704212
 C           -2.46515829       -0.59072048       -2.98786697
 C           -2.57580073        0.72266792       -3.62006876
 C            1.03191690       -1.23529240       -3.95981898
 C            1.71263178       -0.04597405       -4.44715734
 C            0.72081305        0.86184351       -4.98240724
 C           -0.39528705       -1.02157698       -4.11825278
 C           -0.57017746        0.21359732       -4.86325293
