   70
C70 / DATE: 7/ 1/2024 / Origin: Program Fullerene / C70 from database
 C            1.20533347        0.02558556        4.33380820
 C            2.50704020       -0.31821296        3.81902091
 C            2.48933763       -1.73946481        3.50640222
 C            0.39475519       -1.18316693        4.30095885
 C            1.09645675       -2.14352381        3.48211383
 C           -0.92968833       -0.78630234        3.89486843
 C            0.44052406        1.05346876        3.65640064
 C           -0.94044279        0.66439425        3.82631405
 C            0.84375864        1.51379575        2.40382820
 C            2.97565558        0.35802341        2.63149867
 C            2.11095964        1.18185009        1.90182557
 C            3.28388213       -1.92751098        2.30744946
 C            3.78294010       -0.61517031        1.92124404
 C            2.79673026       -2.77781173        1.32388010
 C            0.53292846       -2.55416350        2.27222906
 C            1.37451949       -3.10729732        1.31116094
 C           -1.55451498       -1.47436636        2.86229919
 C           -0.74464649       -2.09952955        1.90055885
 C           -2.78538597       -0.96029755        2.47593424
 C           -1.89737688        1.23214044        3.00377547
 C           -3.01686968        0.44260247        2.76808620
 C           -0.13513303        2.02388084        1.54455172
 C           -1.46661337        2.08687773        1.98152919
 C            0.18352607        2.29976293        0.20889541
 C            2.41742752        1.44837624        0.56729260
 C            1.48678570        2.09251880       -0.24855804
 C            4.07554512       -0.36552453        0.59139942
 C            3.53336007        0.83686462       -0.01002752
 C            3.21649282       -2.57926746       -0.05222570
 C            3.92344978       -1.42923251       -0.39064289
 C            0.94497220       -3.15336668       -0.07092572
 C            2.12950279       -3.03265155       -0.90328568
 C           -1.09001807       -2.02147422        0.53705079
 C           -0.22174774       -2.49580214       -0.44297625
 C           -3.24573884       -1.16411196        1.12061374
 C           -2.30812661       -1.46753362        0.14594431
 C           -4.03121770        0.91621169        1.85782264
 C           -4.22202509       -0.12785782        0.85978730
 C           -2.42365462        2.69047486        1.16872675
 C           -3.77729920        2.15750975        1.15936781
 C           -0.79795903        2.77311085       -0.67321281
 C           -2.08295487        3.03254604       -0.20143117
 C           -0.58823901        2.70196037       -2.05440002
 C            1.77754392        2.27321908       -1.59884854
 C            0.69569747        2.48267857       -2.53882935
 C            3.58263950        0.64099324       -1.44527162
 C            3.68756380       -0.79342164       -1.67860036
 C            2.75058176        1.40809057       -2.24313352
 C            1.99241504       -2.50740790       -2.17806756
 C            2.84445669       -1.40374900       -2.60068906
 C           -0.40380247       -2.11286322       -1.77323089
 C            0.65749574       -2.23146126       -2.67340699
 C           -2.47005575       -0.99798698       -1.16615688
 C           -1.53026044       -1.37011391       -2.14029920
 C           -4.21902411        0.50701127       -0.43642301
 C           -4.14968267        1.94293950       -0.22170214
 C           -3.22576728        2.70004552       -1.04383494
 C           -3.44629837       -0.02507461       -1.46171303
 C           -1.66984922        2.45452006       -2.89671086
 C           -2.97143635        2.20982587       -2.31396829
 C           -3.25827095        0.80446995       -2.56055404
 C           -1.56316140       -0.78509791       -3.40823990
 C           -1.52027823        1.47907054       -3.96046343
 C           -2.40074418        0.36765012       -3.63467959
 C            0.89681244        1.56967817       -3.65967850
 C            2.10192737        0.80380943       -3.39459415
 C            2.07200433       -0.58186580       -3.52054055
 C            0.80003914       -1.25612904       -3.73641216
 C           -0.20265635        0.92972614       -4.21610907
 C           -0.31412081       -0.51687154       -4.09679539
