   70
C70 / DATE: 7/ 1/2024 / Origin: Program Fullerene / C70 from database
 C            1.55915052       -0.01636419        4.75719716
 C            0.74999744       -1.19464520        4.52143760
 C            1.35689484       -1.96036843        3.44408951
 C            2.68464426       -0.07039327        3.84561970
 C            2.52846389       -1.23634061        2.98947379
 C            2.78324026        1.22665469        3.21029061
 C            0.75940040        1.14105861        4.39032581
 C            1.49617963        1.88303035        3.38983126
 C           -0.61984238       -0.75344417        4.35185365
 C           -0.56916826        0.67173740        4.05895992
 C           -1.45170619       -1.54882731        3.58019810
 C            0.51962462       -2.53950015        2.50137445
 C           -0.84587036       -2.60081259        2.78046314
 C            0.94410875       -2.62373415        1.17511444
 C            2.75743415       -1.08676847        1.62206574
 C            1.93205018       -1.74983252        0.70320449
 C            3.35770274        1.27222618        1.95215716
 C            3.48062378        0.02622935        1.20746407
 C            2.87111938        2.26017054        1.00922504
 C            0.82865978        2.35735503        2.26278277
 C            1.59643671        2.78604382        1.17998444
 C           -1.18828382        1.13981984        2.90258132
 C           -0.53238074        2.06554884        2.07348484
 C           -2.43464257       -0.90768774        2.72699914
 C           -2.29601346        0.44279998        2.41992651
 C           -1.77816082       -2.91804107        1.71398316
 C           -2.75703781       -1.84342692        1.65944456
 C            0.15014664       -3.31999841        0.27271136
 C           -1.27878395       -3.42568910        0.52866180
 C            0.32656999       -3.10702589       -1.14968798
 C            2.02421200       -1.45746662       -0.67240790
 C            1.18123569       -2.10419917       -1.58957550
 C            3.51057721        0.36977044       -0.19579427
 C            3.26879510        1.80037670       -0.30685439
 C            2.91197091       -0.47054162       -1.12167614
 C            2.59023950        2.26570286       -1.42784688
 C            0.96666544        3.35531105        0.08459507
 C            1.51998305        3.14841288       -1.24830397
 C           -1.19429431        2.57241060        0.94819014
 C           -0.47785292        3.27941489       -0.01329013
 C           -2.98812170        0.94019022        1.32697721
 C           -2.44588561        2.07255928        0.60253748
 C           -3.16314846       -1.33944263        0.42544315
 C           -3.52490389        0.00506645        0.35078480
 C           -1.96180509       -3.10643511       -0.70831785
 C           -0.97992005       -3.25002465       -1.76909236
 C           -2.86823936       -2.04514188       -0.74642661
 C           -1.21626167       -2.63289506       -2.98603408
 C            1.02779720       -1.60647262       -2.88782475
 C           -0.15623471       -1.84525364       -3.59129690
 C            2.77596264        0.03392160       -2.40873557
 C            2.64077282        1.47461334       -2.57196607
 C            1.87590325       -0.60654543       -3.34192966
 C            1.70688024        1.71582825       -3.65349800
 C            1.33556358        0.42681954       -4.20845506
 C            0.40600254        3.16638573       -2.18962983
 C           -0.82354205        3.12260123       -1.41933325
 C            0.49034088        2.44996202       -3.37188965
 C           -2.78373196        1.90377916       -0.80438638
 C           -3.55752180        0.68107857       -0.93303988
 C           -1.84352853        2.24344012       -1.77460094
 C           -3.20586279       -1.49662622       -1.98235822
 C           -2.45933993       -1.90257424       -3.16169721
 C           -3.44836486       -0.06735680       -2.08994182
 C           -0.77994685       -0.75721356       -4.33449073
 C           -0.09293001        0.44145111       -4.44927747
 C           -0.63188360        1.62215486       -3.78277720
 C           -1.75312331        1.49760866       -2.95726357
 C           -2.17299586       -0.70898356       -3.93974770
 C           -2.63402034        0.43853884       -3.17998550
