   70
C70 / DATE: 7/ 1/2024 / Origin: Program Fullerene / C70 from database
 C            1.51471515        0.08100256        4.31713439
 C            0.73095291       -1.11248967        4.07714469
 C            1.36792228       -1.88009448        3.02283315
 C            2.64012862        0.05132663        3.40468304
 C            2.53817443       -1.14367276        2.58774286
 C            2.67775638        1.32787328        2.72301376
 C            0.69011161        1.22436247        3.95891176
 C            1.41449263        1.99547869        2.97828613
 C           -0.63822010       -0.69545872        3.86250658
 C           -0.62339207        0.73439811        3.60692885
 C           -1.42001302       -1.47046588        3.02696763
 C            0.54159033       -2.46346276        2.07113139
 C           -0.82046717       -2.53719497        2.35478664
 C            0.95771541       -2.53353712        0.73661598
 C            2.79096870       -1.01685612        1.22893444
 C            2.08465920       -1.80497124        0.31294797
 C            3.14752798        1.35581697        1.41892633
 C            3.42530854        0.14178613        0.78324514
 C            2.78012736        2.44171826        0.63024059
 C            0.73645878        2.51937278        1.88470016
 C            1.51460217        3.00997597        0.83930421
 C           -1.24732314        1.20358612        2.44889596
 C           -0.59283962        2.13442295        1.62300957
 C           -2.49709196       -0.84895231        2.41565073
 C           -2.31252910        0.45418097        1.93457694
 C           -3.45855849       -1.67469036        1.85192241
 C           -1.61778944       -3.31623524        1.52961466
 C           -3.03654395       -3.00247056        1.44748405
 C            0.11870481       -3.15059058       -0.20289871
 C           -1.14659572       -3.59016950        0.18404119
 C            0.34138364       -2.95138202       -1.55781999
 C            2.39274188       -1.70634930       -1.05186295
 C            1.48768600       -2.18572174       -1.99052117
 C            3.89551338        0.16817949       -0.52084828
 C            3.29568725       -0.73490730       -1.48477748
 C            3.45771156        2.61976182       -0.57233213
 C            4.07937127        1.45650425       -1.17297417
 C            2.85720171        3.38847460       -1.64282045
 C            0.87111074        3.70620821       -0.17228329
 C            1.54014266        3.94550545       -1.43748931
 C           -1.19090139        2.50918728        0.41088639
 C           -0.50825733        3.36894551       -0.45642102
 C           -2.90909746        0.84627354        0.73375507
 C           -2.22817306        1.72643902       -0.11017329
 C           -4.32547372       -1.15152717        0.82058977
 C           -4.00340335        0.13583701        0.24171607
 C           -3.46279195       -3.20347901        0.07529537
 C           -2.26693149       -3.39587063       -0.72756312
 C           -4.37490905       -2.13034898       -0.25796223
 C           -0.77912296       -2.59416469       -2.41518736
 C           -2.06862472       -2.66526233       -1.90126382
 C            1.05492293       -1.29836165       -3.06071723
 C           -0.38221019       -1.42654259       -3.18687301
 C            2.94352219        0.05325690       -2.65525097
 C            3.57965935        1.34659596       -2.53359021
 C            2.79509300        2.52796355       -2.81537669
 C            1.64649935       -0.04661864       -3.15080107
 C            0.67987754        3.42792950       -2.48664462
 C           -0.59240607        3.10886425       -1.88168121
 C            1.39510743        2.36558376       -3.16130739
 C            0.82501020        1.09009817       -3.18630067
 C           -2.32848891        1.57908480       -1.50041619
 C           -1.17260882       -0.28562958       -3.15195164
 C           -1.24810721        1.95835164       -2.27067338
 C           -0.55520140        0.95936062       -2.96811862
 C           -4.15308542       -0.00131347       -1.19067867
 C           -4.17619445       -1.42006641       -1.50165584
 C           -2.99787474       -1.70410513       -2.30711792
 C           -3.15249567        0.60876699       -2.03394262
 C           -2.52243627       -0.42951128       -2.82612715
