   70
C70 / DATE: 7/ 1/2024 / Origin: Program Fullerene / C70 from database
 C            1.30668497       -0.00596438        4.16412979
 C            2.63417309       -0.34057391        3.70492260
 C            2.64237621       -1.75457975        3.36931211
 C            0.47355573       -1.19331280        4.03873290
 C            1.26716245       -2.22662486        3.40973261
 C           -0.76831435       -0.79379555        3.40712256
 C            0.60453953        1.08284633        3.51792038
 C           -0.76080085        0.65483346        3.31305885
 C            1.21312091        1.81540144        2.50575070
 C            3.17930194        0.38036010        2.57215803
 C            2.46653468        1.43167429        1.99423779
 C            3.40176411       -1.91647660        2.13978703
 C            3.82285184       -0.59227351        1.70574750
 C            2.95038914       -2.83552163        1.20078831
 C            0.75444544       -2.89228146        2.30114842
 C            1.65210889       -3.45933842        1.39972171
 C           -1.25228847       -1.52461330        2.32496083
 C           -0.57189422       -2.67368878        1.90545270
 C           -2.17110162       -0.90711536        1.46926436
 C           -1.48428767        1.24016479        2.28546565
 C           -2.42201444        0.45857802        1.62467479
 C            0.40205122        2.65692966        1.74792237
 C           -0.96730112        2.36207952        1.63005951
 C            1.02280946        3.47242482        0.81638642
 C            2.86437931        1.88116543        0.73063456
 C            2.21166362        2.96869682        0.16426490
 C            3.92834819       -0.30951462        0.34922063
 C            3.49474029        0.98922508       -0.13566059
 C            3.07767335       -2.54600768       -0.22040018
 C            3.52141983       -1.30009296       -0.63641747
 C            1.18120458       -3.89349322        0.10098839
 C            1.94111587       -3.15023051       -0.89409795
 C           -1.09286512       -3.41587043        0.84887295
 C           -0.18084926       -4.05314903       -0.09155144
 C           -2.63152672       -1.57607519        0.33099839
 C           -2.20962693       -2.87753235        0.08982788
 C           -3.25886703       -0.85468234       -0.69322649
 C           -3.31621898        1.09474428        0.77965449
 C           -3.82867155        0.37591366       -0.37059037
 C           -1.76145371        2.99251225        0.65953383
 C           -3.01351344        2.45271460        0.36013517
 C            0.23159665        4.14541206       -0.18880034
 C           -1.18892812        3.87970421       -0.25009065
 C            1.90878104        2.91556674       -1.25523923
 C            0.79349006        3.80040046       -1.48819570
 C            2.94737252        0.80933153       -1.47231038
 C            2.80016596       -0.61099600       -1.69626949
 C            1.95262039        1.68072062       -1.89312948
 C            1.25665332       -2.44451163       -1.88443560
 C            1.57735470       -1.10534860       -2.13027464
 C           -0.70359920       -3.82714036       -1.42406836
 C           -2.04319343       -3.29184468       -1.28379000
 C            0.03475589       -2.94453129       -2.31182066
 C           -3.00104299       -1.17921534       -2.03789072
 C           -2.21769244       -2.29067723       -2.31084140
 C           -0.92068636       -2.05116057       -2.92885192
 C           -2.91119513       -0.15647756       -2.97368228
 C           -4.09780940        1.35236919       -1.41199154
 C           -3.56621980        2.63286962       -0.97303741
 C           -3.59327331        1.09533954       -2.74024868
 C           -1.51696660        3.76029522       -1.66130858
 C           -0.29314498        3.33290479       -2.31562563
 C           -2.70776639        3.15104674       -2.02462857
 C           -2.67362965        2.16424529       -3.09058687
 C            0.78807479        1.17198118       -2.49257545
 C            0.61177693       -0.22040445       -2.63189518
 C           -0.56007881       -0.73441909       -3.20342821
 C           -1.59821355        0.13116358       -3.52620074
 C           -0.23587385        2.05617458       -2.87101022
 C           -1.39614741        1.55974552       -3.44841669
