   70
C70 / DATE: 7/ 1/2024 / Origin: Program Fullerene / C70 from database
 C            1.64865311       -0.01159339        4.52743195
 C            0.82646201       -1.19948818        4.45206995
 C            1.24522181       -1.97952085        3.29606046
 C            2.60816955       -0.07969751        3.44411267
 C            2.30989223       -1.24708721        2.63859678
 C            2.59051564        1.20547308        2.78498510
 C            0.78188406        1.12753943        4.26713817
 C            1.39631254        1.90310309        3.21763996
 C           -0.55354982       -0.76116089        4.49930866
 C           -0.55397904        0.62094150        4.04398740
 C           -1.48977744       -1.61194152        3.95155211
 C            0.24702864       -2.57945117        2.53264747
 C           -0.99600375       -2.71648426        3.14673094
 C            0.31719093       -2.52125287        1.12848313
 C            2.27093950       -1.08949705        1.26133137
 C            1.38526560       -1.85561539        0.50522672
 C            2.85563963        1.24907830        1.42759592
 C            2.83588101        0.05544331        0.69537740
 C            2.48910740        2.41114395        0.76362888
 C            0.59974220        2.44889884        2.21913470
 C            1.27190460        3.00376448        1.13296955
 C           -1.21733476        0.94915958        2.85616042
 C           -0.68947602        1.92971716        2.00196434
 C           -2.54252191       -1.03035403        3.15183878
 C           -2.24907936        0.11502756        2.40552921
 C           -2.12162404       -3.17709622        2.37199109
 C           -3.16647230       -2.16764227        2.51271214
 C           -0.74015367       -3.01904187        0.34752816
 C           -1.93756127       -3.39951151        0.95824597
 C           -0.73610418       -2.80216569       -1.03700198
 C            1.43205550       -1.75297946       -0.88658111
 C            0.45047370       -2.39074140       -1.65383574
 C            2.94468690        0.13078014       -0.69232610
 C            2.33241189       -0.84962906       -1.47633252
 C            2.99126532        2.56962728       -0.51874392
 C            3.28317004        1.36136848       -1.26613995
 C            2.38633163        3.52788488       -1.42001483
 C            0.50273733        3.66995510        0.18850672
 C            1.08426072        4.05326920       -1.08200160
 C           -1.31509574        2.15953378        0.77146462
 C           -0.83238520        3.16841926       -0.05801881
 C           -2.71614450        0.23676539        1.08665648
 C           -2.12783907        1.16454903        0.23030975
 C           -3.76265807       -1.98297894        1.21479671
 C           -3.17602188       -2.98491650        0.34453517
 C           -3.58820648       -0.70672409        0.55152645
 C           -1.95981777       -2.64641983       -1.71784392
 C           -3.08967735       -2.39745700       -0.96388991
 C           -3.50034813       -1.00629351       -0.86233731
 C           -1.94776771       -1.99469794       -2.93611439
 C            0.48794842       -2.30845022       -3.04447028
 C           -0.75498858       -2.06587314       -3.73844345
 C            2.40954957       -0.73562397       -2.86060729
 C            1.48593082       -1.48180966       -3.68765472
 C            2.98645447        1.62514692       -2.66503165
 C            2.29161886        2.90295933       -2.72642616
 C            2.50546034        0.58847221       -3.44661826
 C            0.15516708        3.65885939       -2.12862167
 C           -0.98398218        3.02755003       -1.49496758
 C            0.89366792        2.91048192       -3.12669655
 C           -2.20817332        0.99916955       -1.16405051
 C           -2.87333271       -0.10130776       -1.71602594
 C           -2.40840376       -0.61436037       -2.92864288
 C           -1.44579512        1.82034369       -1.99605654
 C           -0.62940055       -0.79567462       -4.42576335
 C            0.78334798       -0.51802213       -4.52899570
 C            1.25190405        0.79501738       -4.14366384
 C            0.35411705        1.73135421       -3.62962428
 C           -1.47395231        0.15789071       -3.72675989
 C           -0.90474206        1.30387335       -3.17947265
