   70
C70 / DATE: 7/ 1/2024 / Origin: Program Fullerene / C70 from database
 C            1.40353538        0.18585042        4.81695220
 C            0.61550999       -1.02246359        4.68411488
 C            1.50685012       -2.04626824        4.18928388
 C            2.61497465        0.00595426        4.02824899
 C            2.70203430       -1.38855910        3.67528294
 C            2.58988202        0.98519764        2.96224607
 C            0.64821495        1.26489672        4.21264309
 C            1.51841917        1.91465582        3.26139235
 C           -0.57316728       -0.70662191        3.90331594
 C           -0.60061146        0.73256768        3.70616351
 C           -0.93618158       -1.54127936        2.84566793
 C            1.01983037       -2.90371750        3.13592330
 C           -0.29999228       -2.78420043        2.71065953
 C            2.82147152       -1.74635296        2.27218445
 C            2.04556926       -2.95597922        2.11060709
 C            2.76384155        0.59588439        1.62749794
 C            2.73137469       -0.76540262        1.28463217
 C            2.45493017        1.54563110        0.64851396
 C            0.93405899        2.53125664        2.17510045
 C            1.72828872        2.67129455        1.05430252
 C           -1.06378470        1.23498286        2.49557505
 C           -0.43461284        2.35877135        1.95606890
 C           -1.62988730       -0.99342769        1.75579957
 C           -1.77176795        0.39607259        1.63820008
 C           -2.04875819       -1.82361406        0.71458978
 C           -0.64811013       -3.59326122        1.64033629
 C           -1.70711032       -3.16964852        0.75050314
 C            1.62926115       -3.32204515        0.84068907
 C            0.43811861       -4.04003817        0.78730013
 C            2.31284708       -1.15009100        0.00591550
 C            1.94953080       -2.48416007       -0.23519942
 C            2.41882271        1.15535104       -0.69395551
 C            2.19393176       -0.18768970       -1.00400787
 C            2.20451219        2.12672763       -1.67265674
 C            1.27807779        3.57002248        0.10780900
 C            1.74819212        3.43360994       -1.24980345
 C           -0.97285378        2.93062223        0.80325959
 C           -0.15553972        3.78647664        0.05958479
 C           -2.31112657        0.94380030        0.47198366
 C           -2.03059507        2.28435437        0.16249765
 C           -2.50684100       -1.25806071       -0.47746772
 C           -2.86169106        0.09095182       -0.49265873
 C           -2.26233876       -1.89273119       -1.70333328
 C           -1.49701805       -3.87542081       -0.49831827
 C           -0.13007648       -4.37836214       -0.49620086
 C           -1.69256641       -3.15551583       -1.73513956
 C            1.56443190       -2.86586569       -1.51920338
 C            0.53119719       -3.87582767       -1.68042849
 C           -0.49626973       -3.31662118       -2.53616675
 C            1.63404379       -0.52464919       -2.24286626
 C            1.32866993       -1.84820350       -2.52515145
 C            0.05253633       -2.12809080       -3.16246292
 C            1.46119898        1.77369521       -2.87020959
 C            1.02035010        0.46591086       -3.00881634
 C            0.67190937        3.85198195       -2.12986016
 C           -0.50358476        4.11588757       -1.31058850
 C            0.57790106        2.88073543       -3.20506448
 C           -2.57983468        2.87029271       -0.97496264
 C           -1.74849282        3.74185675       -1.79345523
 C           -3.35011831        0.62001477       -1.68674952
 C           -3.37470261        2.05587223       -1.86773309
 C           -2.07703086       -1.09191195       -2.82124804
 C           -0.79844282       -1.05150565       -3.39039397
 C           -0.21196044        0.19332770       -3.61463958
 C           -2.88942034        0.02454310       -2.92937168
 C           -0.67072914        2.61225579       -3.74604249
 C           -1.83451256        3.26151341       -3.16038349
 C           -2.95099106        2.33935947       -3.22971800
 C           -1.03495523        1.23595268       -4.03304530
 C           -2.45864241        1.09945473       -3.79754264
