   70
C70 / DATE: 7/ 1/2024 / Origin: Program Fullerene / C70 from database
 C            1.37636878        0.04605963        5.18558552
 C            0.63631676       -1.18604405        4.97176197
 C            1.56752443       -2.15978164        4.45382665
 C            2.63239427       -0.07328966        4.46765500
 C            2.84098954       -1.48361845        4.22822033
 C            2.58543207        0.83918620        3.33081934
 C            0.62329533        1.11507530        4.56313782
 C            1.45708262        1.72353031        3.54074965
 C           -0.54085092       -0.86391355        4.18545938
 C           -0.65918370        0.57915521        4.13978995
 C           -0.83210047       -1.57739523        3.02673360
 C            1.22801029       -2.86047460        3.23173553
 C            0.04982133       -2.56153751        2.54777316
 C            3.31888178       -1.88761442        2.92492032
 C            2.44460060       -2.95039641        2.45986623
 C            2.84147110        0.37158101        2.03935024
 C            3.38186241       -0.90161430        1.85754109
 C            2.26691586        1.03311275        0.94348630
 C            0.80217647        2.22856568        2.42984402
 C            1.39251967        2.10012423        1.17042980
 C           -1.23068211        1.15387862        3.01102495
 C           -0.58432920        2.26620306        2.48620095
 C           -1.77667323       -1.03506171        2.15279347
 C           -1.96389622        0.35272750        2.12633094
 C           -2.19255934       -1.80594369        1.07693189
 C           -0.05607755       -2.96598461        1.21366116
 C           -1.29487279       -2.83707472        0.59408943
 C            2.33454449       -2.81074188        1.02370725
 C            3.07016455       -1.61853667        0.64274951
 C            1.09748722       -3.00851272        0.41809292
 C            2.32404884        0.44843358       -0.32657311
 C            2.59136815       -0.91455624       -0.44720472
 C            1.71907096        1.08598445       -1.41331874
 C            0.74029957        2.70971717        0.09239781
 C            0.95290459        2.24043740       -1.21248892
 C           -1.23088422        2.96898682        1.49557230
 C           -0.42550068        3.41905585        0.38271955
 C           -2.52374956        0.97097021        0.99719170
 C           -2.39983007        2.35501075        0.90408561
 C           -2.79806639       -1.16345635       -0.07465206
 C           -2.80457802        0.21872642       -0.15420397
 C           -1.37673403       -2.85030568       -0.85579244
 C           -2.43919578       -1.93510394       -1.24817274
 C            0.99500402       -2.62855102       -0.91811084
 C            1.85765958       -1.62816502       -1.38015737
 C           -0.20056787       -2.86379690       -1.59489129
 C            1.60109956        0.38511017       -2.61748402
 C            1.58805660       -1.01406161       -2.58997846
 C            1.17781612        1.06913228       -3.75040930
 C            0.21699366        2.78289493       -2.28348501
 C            0.40758658        2.28433209       -3.57205547
 C           -1.36124176        3.73070266       -0.67018950
 C           -2.59618974        3.01346488       -0.36735979
 C           -1.00608568        3.40113763       -2.02706509
 C           -2.86153211        0.82248777       -1.41889878
 C           -2.90637499        2.20948370       -1.52577967
 C           -2.20642967        2.84208460       -2.62370173
 C           -2.34019042       -1.30395030       -2.48332244
 C           -2.62506522        0.06717272       -2.57754286
 C           -0.27491543       -2.51872910       -2.93945975
 C            0.80054147       -1.72198410       -3.48700231
 C           -1.49587056       -1.89970429       -3.41870972
 C            0.60065189        0.33145547       -4.86309885
 C            0.29263804       -1.06764886       -4.67365145
 C           -1.15822540       -1.20591024       -4.64643595
 C           -0.76151744        2.18204958       -4.43414044
 C           -2.06303523        2.13295721       -3.79836717
 C           -2.46346532        0.73485074       -3.79958726
 C           -0.63496281        0.98763421       -5.24464190
 C           -1.72816527        0.09998670       -4.87830218
