   70
C70 / DATE: 7/ 1/2024 / Origin: Program Fullerene / C70 from database
 C            1.10920843       -0.11172734        4.64236104
 C            2.36095584       -0.51023157        4.03680793
 C            2.18516640       -1.85403622        3.50266765
 C            0.23943041       -1.27446582        4.62298504
 C            0.78926033       -2.19927180        3.64736915
 C           -1.11016224       -0.79156794        4.42659868
 C            0.36905022        0.98351051        4.04154588
 C           -1.03312574        0.63337772        4.13534926
 C            0.84388280        1.56262172        2.86492601
 C            2.89686909        0.30438844        2.96599809
 C            2.19601131        1.42220971        2.52828138
 C            2.76665539       -1.87533796        2.17916764
 C            3.43215169       -0.60029276        1.96670101
 C            2.05172571       -2.42494176        1.12515331
 C            0.03983929       -2.51147489        2.51220780
 C            0.67312245       -2.64908998        1.26167078
 C           -1.90612210       -1.39318836        3.37757633
 C           -1.35374280       -2.38962403        2.57655406
 C           -1.89033674        0.89090964        2.99443038
 C           -2.63431123       -0.32203042        2.72242897
 C           -0.06830471        2.04701951        1.91362638
 C           -1.39071015        1.59948619        1.91565773
 C            0.39857418        2.75393922        0.80259757
 C            2.66469928        2.03370863        1.37737790
 C            1.77206906        2.87686053        0.61269893
 C            3.58189940       -0.13435927        0.66063010
 C            3.42571745        1.23260419        0.42587966
 C            2.58232422       -2.22977186       -0.14256688
 C            3.37641120       -1.03292611       -0.38609695
 C            1.76192353       -2.46541627       -1.31245801
 C           -0.09360172       -2.96140828        0.13244120
 C            0.40294546       -2.70032165       -1.15149424
 C           -2.11169679       -2.79266690        1.48789122
 C           -1.43403468       -3.27778343        0.30450067
 C           -3.09107358       -0.55735750        1.42827556
 C           -3.15147339       -1.88860540        1.02589175
 C           -2.07220776        1.52404620        0.71124589
 C           -2.92054716        0.43604315        0.45161141
 C           -0.46132880        3.01461239       -0.27246446
 C           -1.72007952        2.39797198       -0.30852410
 C            0.07836504        3.59080141       -1.42564247
 C            2.30375124        2.92090083       -0.73668356
 C            3.09360920        1.71351767       -0.90755505
 C            1.46034665        3.31173644       -1.75831967
 C            3.03929768       -0.54443231       -1.71488143
 C            2.21408095       -1.55585482       -2.35029344
 C            2.74790156        0.80386822       -1.90332103
 C            1.32354961       -1.17120461       -3.33568310
 C           -0.46592390       -2.45518780       -2.22461383
 C           -0.03133699       -1.69514494       -3.30636521
 C           -2.35052747       -3.10293988       -0.80320551
 C           -3.40336211       -2.19989240       -0.36231501
 C           -1.83570023       -2.59261018       -2.05511260
 C           -3.36555364        0.19996170       -0.85803157
 C           -3.47294293       -1.11056184       -1.31111852
 C           -2.70285399       -1.50392880       -2.47756450
 C           -2.49192381        2.40146302       -1.46409199
 C           -3.19011275        1.18583256       -1.82284356
 C           -0.65311161        3.55489344       -2.67648776
 C           -1.97319750        2.97227066       -2.69038112
 C            1.42690000        2.51530022       -2.97028810
 C            1.87641199        1.19608167       -2.92548166
 C            1.24535471        0.22981534       -3.71075214
 C            0.16947153        2.82623650       -3.63258709
 C           -0.91916174       -0.68021512       -3.85665184
 C           -2.18683356       -0.50078905       -3.29489430
 C           -2.69460954        0.78756021       -3.13342020
 C           -1.98933020        1.92411445       -3.69898386
 C           -0.09716749        0.46697465       -4.22288253
 C           -0.63242472        1.74602054       -4.17704909
