   70
C70 / DATE: 7/ 1/2024 / Origin: Program Fullerene / C70 from database
 C            1.48700570       -0.18273912        5.10623887
 C            0.63330527       -1.35775696        5.10623887
 C            1.23350471       -2.34406780        4.22556949
 C            2.61051487       -0.44877590        4.22556949
 C            2.51032742       -1.82385963        3.77061248
 C            2.66278899        0.61122810        3.22920538
 C            0.73229168        0.91381353        4.52705551
 C            1.52071908        1.48182960        3.44993409
 C           -0.64279773       -0.97883469        4.52705551
 C           -0.59781996        0.43434162        4.20626430
 C            0.24153458       -2.72134269        3.22920538
 C           -0.93937565       -1.90420032        3.44993409
 C            0.65691551       -2.95000298        1.91803909
 C            2.89951319       -2.10661964        2.47156942
 C            2.01781511       -2.90287493        1.63209844
 C            3.00861762        0.28683728        1.91803909
 C            3.38433728       -1.02201853        1.63209844
 C            2.54192827        1.09094174        0.87482961
 C            0.85129565        1.96848162        2.33603248
 C            1.53929454        2.03366107        1.13236863
 C           -1.15682811        0.84048482        3.00079464
 C           -0.53763855        1.86574424        2.28701428
 C           -1.60907244       -1.41792455        2.33603248
 C           -1.94056767       -0.06522203        2.28701428
 C           -0.25204822       -2.75463699        0.87482961
 C           -1.45845844       -2.09239194        1.13236863
 C            0.16522746       -2.94124673       -0.44787880
 C            2.43948411       -2.67304615        0.26464557
 C            3.29606001       -1.49407057        0.26464557
 C            1.52133384       -2.81321801       -0.76876725
 C            2.84834996        0.75175457       -0.44787880
 C            3.14564733       -0.57754229       -0.76876725
 C            2.51597764        1.64955132       -1.46015710
 C            0.92929197        2.69685996        0.07204084
 C            1.56419792        2.70333870       -1.16505134
 C           -1.18976069        2.34059538        1.15289025
 C           -0.43868200        2.96525761        0.15493421
 C           -2.59369476        0.40824591        1.15289025
 C           -2.39900433        1.74297867        0.80675416
 C           -2.27769923       -1.71718474        0.07204084
 C           -2.95568777       -0.49910362        0.15493421
 C           -0.79133668       -2.90257632       -1.46015710
 C           -2.08766414       -2.32301823       -1.16505134
 C           -0.41463844       -2.48218041       -2.80067486
 C            1.88369509       -2.26669921       -1.99678452
 C            2.73785285       -1.09105191       -1.99678452
 C            0.89711241       -2.10756227       -3.04732912
 C            2.23256353        1.16138051       -2.80067486
 C            2.28163381       -0.20193204       -3.04732912
 C            1.18066942       -0.85780655       -3.73785605
 C            0.80250489        2.97628341       -2.37296045
 C            1.14879067        1.95916378       -3.35340268
 C           -1.10247581        3.51818036       -0.93807790
 C           -0.51093112        3.41054826       -2.26017841
 C           -3.15074975        2.28915369       -0.22551493
 C           -2.53052703        3.28797653       -1.07567864
 C           -3.68667212       -0.03866072       -0.93807790
 C           -3.90902736        1.39063360       -1.07567864
 C           -2.58262608       -1.68294966       -2.37296045
 C           -1.50827964       -1.69797976       -3.35340268
 C           -3.40151054       -0.56799300       -2.26017841
 C            0.13701362       -0.09954622       -4.25511527
 C            0.14859038        1.34736481       -4.10319113
 C           -1.23550313       -0.55767648       -4.10319113
 C           -1.52692873        2.88198327       -3.15784199
 C           -2.79910771        2.93058932       -2.45955927
 C           -3.65212793        1.75650772       -2.45955927
 C           -3.21277590        0.56161371       -3.15784199
 C           -1.22896636        1.79479438       -3.97411765
 C           -2.08672238        0.61419450       -3.97411765
