   70
C70 / DATE: 7/ 1/2024 / Origin: Program Fullerene / C70 from database
 C            1.36589789       -0.01188811        4.40456354
 C            2.59304751       -0.19681687        3.66773166
 C            2.53906135       -1.50244985        3.02917900
 C            0.53564369       -1.18871904        4.19352666
 C            1.21201450       -2.04346037        3.23332957
 C           -0.81009363       -0.73027229        3.88640650
 C            0.55006936        1.14913383        4.11411989
 C           -0.83401616        0.70266012        4.11078542
 C            0.96504262        2.09010937        3.16794661
 C            2.94320452        0.77063829        2.64848534
 C            2.15541342        1.90355410        2.44374767
 C            3.01657563       -1.34965597        1.66923803
 C            3.42198549        0.03091170        1.49129447
 C            2.32585574       -1.96294610        0.63537564
 C            0.49763470       -2.49478747        2.12959166
 C            1.15204280       -2.67623623        0.90670594
 C           -1.45508769       -1.25877783        2.77174055
 C           -0.88788243       -2.36504079        2.13800323
 C           -2.40216579       -0.49132137        2.08319284
 C           -1.77852083        1.46856332        3.44697033
 C           -2.60490239        0.84145672        2.42602863
 C            0.03422153        3.03862220        2.74406163
 C           -1.37998038        2.77329640        2.95125392
 C            0.16970934        3.66132892        1.44014817
 C            2.38292890        2.63357010        1.27865369
 C            1.35002787        3.50181195        0.73967651
 C            3.29651663        0.60719889        0.23010719
 C            3.03508413        1.97516307        0.15556368
 C            2.56620347       -1.52227738       -0.65976398
 C            3.00351327       -0.20824267       -0.86928765
 C            2.06316767       -2.27614511       -1.71178128
 C            0.45060361       -3.26824604       -0.14924306
 C            0.96476226       -3.18693705       -1.44522294
 C           -1.61258010       -3.00201371        1.14365130
 C           -0.88752383       -3.60839402        0.04237565
 C           -2.85595919       -0.93684777        0.84186865
 C           -2.73800390       -2.29340668        0.57050696
 C           -2.97848888       -0.01598751       -0.21118742
 C           -2.80776654        1.79973110        1.35703607
 C           -2.06552680        3.00196846        1.69130044
 C           -1.09091572        3.49598660        0.73664586
 C           -2.77548043        1.34326589        0.04403353
 C           -1.09313770        2.95895995       -0.54704234
 C           -2.14756005        2.12724494       -0.92221439
 C            1.29504934        3.28137026       -0.69572970
 C            2.48849501        2.54448784       -1.06535153
 C            0.08245738        2.96090006       -1.30416145
 C            2.86547459        0.37994524       -2.12575370
 C            2.46030223        1.77134042       -2.21321548
 C            1.84036268       -1.66284327       -3.00877373
 C            2.19680377       -0.33681560       -3.19946034
 C            0.06868607       -3.15113705       -2.59478525
 C            0.57600601       -2.15861858       -3.52939749
 C           -1.79460752       -3.64652804       -1.09141772
 C           -2.91821752       -2.77475234       -0.78036480
 C           -1.30025354       -3.28251943       -2.40533528
 C           -3.06709098       -0.44877749       -1.54260859
 C           -3.03406930       -1.80824311       -1.84744373
 C           -2.20088788       -2.27636548       -2.94530234
 C           -2.26244035        1.75909268       -2.25192016
 C           -2.84126109        0.46632919       -2.56876357
 C            0.09017923        2.35077359       -2.56112275
 C            1.28157328        1.81944793       -3.06127798
 C            1.26178866        0.58335055       -3.83001742
 C           -1.12110549        1.96028591       -3.12515422
 C           -0.30478763       -1.28732542       -4.16370415
 C           -1.73033380       -1.35456104       -3.87191941
 C           -2.23247691        0.00573274       -3.80559315
 C            0.05558613        0.11300042       -4.33311978
 C           -1.13986783        0.90812430       -4.12740963
