   70
C70 / DATE: 7/ 1/2024 / Origin: Program Fullerene / C70 from database
 C            1.21080951        0.11449740        4.76622737
 C            2.50145804       -0.00374773        4.12346176
 C            2.57384537       -1.33196512        3.54118006
 C            0.41684816       -1.04595645        4.38083846
 C            1.23051710       -1.86843369        3.51134002
 C           -0.85837863       -0.56824484        3.88609322
 C            0.41767611        1.29463847        4.50166667
 C           -0.92460923        0.84670038        4.18069381
 C            0.83019916        2.20940548        3.44802168
 C            2.86832138        0.94496317        3.08379438
 C            2.00310378        1.98043662        2.72759579
 C            3.28220901       -1.22090615        2.28113521
 C            3.54520048        0.19175318        2.03962701
 C            2.86735375       -1.99947007        1.20711917
 C            0.72163919       -2.26539060        2.28174742
 C            1.61776940       -2.62874282        1.27687460
 C           -1.31426083       -0.99987748        2.64287501
 C           -0.60831080       -1.98078553        1.94444358
 C           -2.22518005       -0.20473762        1.94832518
 C           -1.43811785        1.72122169        3.15052032
 C           -0.37370562        2.61691144        2.73762639
 C           -2.22363132        1.18048582        2.15105755
 C           -0.29174314        2.96910336        1.38807435
 C            2.13708084        2.56029460        1.47174138
 C            0.96831121        3.12828773        0.81477583
 C            3.52545124        0.66156405        0.72631093
 C            2.94728240        1.90185061        0.45686508
 C            3.38478467       -1.66274344       -0.03703503
 C            3.66720422       -0.26242809       -0.30836465
 C            2.82860323       -2.25482132       -1.23982474
 C            1.11761010       -3.29778726        0.16731870
 C            1.76578959       -3.13884499       -1.12402662
 C           -1.10779908       -2.43229324        0.72053941
 C           -0.31631453       -3.28142786       -0.05337994
 C           -2.80761832       -0.70447580        0.78039268
 C           -2.22410333       -1.80906915        0.14889311
 C           -3.65747262        0.14087293        0.05952581
 C           -2.46739594        1.98711825        1.05702721
 C           -1.39709709        2.73767184        0.55532771
 C           -3.47139544        1.57219646        0.20109781
 C           -1.24886593        2.87845372       -0.82952768
 C            1.13201132        2.94642392       -0.61726518
 C            2.32480258        2.14921365       -0.83657495
 C            0.01262597        2.70606926       -1.39798460
 C            3.13533526        0.03976644       -1.62688472
 C            2.80509905       -1.22414822       -2.26592492
 C            2.29995188        1.14114364       -1.79273091
 C            1.81995721       -1.24519097       -3.24141533
 C            0.73413723       -3.16683167       -2.14870567
 C           -0.54177299       -3.38537920       -1.48428155
 C            0.81211414       -2.29561344       -3.23023871
 C           -2.63205029       -2.17239231       -1.13598810
 C           -1.70111718       -2.84840124       -2.02087632
 C           -3.95789829       -0.12904512       -1.33641004
 C           -3.39358407       -1.23931936       -1.94542055
 C           -3.56326218        2.17379309       -1.10964108
 C           -2.37495758        2.80205534       -1.64450476
 C           -3.98846956        1.14290006       -2.04007688
 C           -2.22202290        2.34405658       -3.01328256
 C           -3.20911325        1.29984988       -3.25196618
 C            0.15087255        1.94742188       -2.56169856
 C            1.23707237        1.07718888       -2.69791407
 C            1.14698441       -0.00470097       -3.57347524
 C           -0.93004469        1.83566442       -3.43233647
 C           -0.40669591       -1.74217883       -3.80120512
 C           -1.64119560       -2.08968433       -3.26163720
 C           -2.71437910       -1.10884577       -3.23063417
 C           -2.51073154        0.14826573       -3.79368140
 C           -0.13590259       -0.35575782       -4.15547604
 C           -1.16083441        0.57739854       -4.11976472
