   70
C70 / DATE: 7/ 1/2024 / Origin: Program Fullerene / C70 from database
 C            1.60234798       -0.26916505        4.91464994
 C            0.75752059       -1.45044452        4.92900804
 C            1.24904169       -2.36450203        3.91324060
 C            2.63150130       -0.47437326        3.91361719
 C            2.42077054       -1.77383320        3.30124388
 C            2.64343815        0.68787462        3.04115931
 C            0.79391403        0.85484494        4.47550550
 C            1.46992192        1.48463455        3.35737639
 C           -0.57716699       -1.04453918        4.53135171
 C           -0.55958054        0.38383906        4.27008115
 C            0.13737898       -2.71386451        3.05148436
 C           -1.01218486       -1.92326118        3.45643104
 C            0.37105122       -2.86140725        1.69192006
 C            2.55720840       -1.85594537        1.92156511
 C            1.65458671       -2.62747785        1.18150421
 C            2.95174408        0.48895865        1.70035541
 C            3.20931168       -0.81266183        1.27508499
 C            2.47091375        1.40371225        0.76418406
 C            0.70276332        1.96572501        2.30138006
 C            1.31343494        2.13455227        1.06356095
 C           -1.24865421        0.83134361        3.15201418
 C           -0.68616756        1.82670386        2.34502452
 C           -1.81939782       -1.37989929        2.45890640
 C           -2.16751433       -0.03597850        2.57359705
 C           -0.71784621       -2.77335811        0.83334610
 C           -1.79574592       -1.95383347        1.18209735
 C           -0.53482166       -3.15212741       -0.48365273
 C            1.87189350       -2.75690439       -0.19621645
 C            0.81538649       -3.15594103       -1.01897612
 C            3.58148058       -1.01044685       -0.04294398
 C            2.98066787       -2.12213114       -0.75769400
 C            2.89813103        1.28356444       -0.56045748
 C            3.57705592        0.12811434       -0.94233610
 C            2.34204521        2.10470036       -1.53811870
 C            0.59122066        2.74317252        0.04217048
 C            1.20685970        2.93792612       -1.18852363
 C           -1.44451090        2.30097217        1.27043969
 C           -0.79759294        2.85593499        0.15947161
 C           -3.04448628        0.49592475        1.64888661
 C           -2.74402913        1.81418791        1.12838619
 C           -2.62842774       -1.41925551        0.18832820
 C           -3.42163026       -0.31981401        0.51337285
 C           -1.42724042       -2.64504526       -1.50483079
 C           -2.46410732       -1.78807472       -1.15403650
 C            0.74339299       -2.70777876       -2.40514560
 C           -0.62921858       -2.33027943       -2.67826915
 C            2.98465627       -1.77963000       -2.17004873
 C            3.40210143       -0.39228726       -2.28632699
 C            1.76806947       -1.94562889       -2.93819557
 C            2.10781599        1.58157477       -2.88034573
 C            2.48091785        0.28164628       -3.17838979
 C            1.45027392       -0.67079019       -3.56378475
 C            0.39988073        3.09568726       -2.38337479
 C            0.80144941        2.04422703       -3.30232882
 C           -1.55618111        3.29098302       -0.93120797
 C           -0.94893222        3.37857574       -2.25042367
 C           -3.42847524        1.93251671       -0.14492998
 C           -3.86432063        0.59106657       -0.52567018
 C           -2.91230089        2.79471225       -1.10062747
 C           -3.02813346       -1.01182714       -2.16993625
 C           -3.78804419        0.18258875       -1.84739733
 C           -0.91105977       -1.16172175       -3.37864169
 C            0.12107150       -0.24827675       -3.64618244
 C           -0.15029521        1.12548413       -3.74106014
 C           -2.22947869       -0.72405288       -3.35252435
 C           -1.86954054        2.77977388       -3.20207105
 C           -3.11282263        2.49822841       -2.50746603
 C           -3.54039417        1.16546956       -2.88831972
 C           -1.45945087        1.57011669       -3.89804654
 C           -2.54146649        0.61722048       -3.79224394
