   70
C70 / DATE: 7/ 1/2024 / Origin: Program Fullerene / C70 from database
 C            1.57779011        0.07514952        4.41253775
 C            0.77562271       -1.12030818        4.23438709
 C            1.47841096       -1.99736468        3.32380777
 C            2.67320555        0.01642069        3.45996035
 C            2.60313333       -1.25207401        2.77363341
 C            2.62924381        1.21894388        2.66489002
 C            0.75184041        1.21633022        4.06053281
 C            1.46343521        1.98234874        3.06512045
 C           -0.56470790       -0.71368709        3.87460608
 C           -0.56679813        0.73222472        3.72143415
 C           -1.24847843       -1.46914750        2.93149829
 C            0.73297635       -2.78724720        2.45632326
 C           -0.65922931       -2.63462877        2.42065607
 C            1.38636350       -3.27467040        1.32897636
 C            2.82147244       -1.29856297        1.39790780
 C            2.44214039       -2.46635337        0.74056167
 C            2.89738856        1.14489936        1.30475219
 C            2.94617611       -0.10568100        0.66296004
 C            2.57174441        2.26344104        0.54407942
 C            0.74434756        2.60207682        2.05285572
 C            1.46354559        3.02588954        0.94242332
 C           -1.21638771        1.27481760        2.61708849
 C           -0.62294039        2.32393711        1.89454260
 C           -2.27326952       -0.85219174        2.21626602
 C           -2.23802113        0.53253870        2.03069213
 C           -3.12139251       -1.63595851        1.44218893
 C           -1.40105719       -3.43701477        1.55531718
 C           -2.72681878       -3.00079216        1.15315774
 C            0.62356892       -3.87893036        0.25080961
 C           -0.75221231       -4.01021709        0.38705142
 C            2.23770249       -2.45274545       -0.69484741
 C            1.18970159       -3.41069142       -1.00490930
 C            2.89222507       -0.15157548       -0.73889913
 C            2.29077983       -1.24016227       -1.36845142
 C            3.00483177        2.28306578       -0.77389862
 C            3.09665928        1.01603426       -1.46811076
 C            2.48578516        3.27180566       -1.69725498
 C            0.81065709        3.85470653        0.04284351
 C            1.36616901        4.08180463       -1.27616140
 C           -1.30779857        2.88052542        0.80079850
 C           -0.62579198        3.71504581       -0.08651351
 C           -3.00780687        1.12015156        1.03724868
 C           -2.49960761        2.30228450        0.36808329
 C           -3.69773497       -1.08219779        0.23011600
 C           -3.65617142        0.28754954        0.03801349
 C           -2.85384048       -3.20282792       -0.28159601
 C           -1.61808955       -3.79196933       -0.76231616
 C           -3.31444216       -1.95343219       -0.86588571
 C            0.36257299       -3.17597173       -2.09212149
 C           -1.07846364       -3.33097328       -1.95647728
 C            1.53411677       -1.04885295       -2.53101926
 C            0.60312543       -2.00946468       -2.92376987
 C            2.42396766        1.16966734       -2.74551432
 C            2.10604994        2.57917528       -2.91659698
 C            1.49545547        0.21011437       -3.13146637
 C            0.29510731        3.90857066       -2.24331478
 C           -0.92811138        3.63326161       -1.50885205
 C            0.74286945        2.95974073       -3.24418733
 C           -2.72936250        2.13422304       -1.06023415
 C           -3.27858005        0.80393440       -1.26497005
 C           -1.79576415        2.64152580       -1.95737835
 C           -2.63915667       -1.41871491       -1.96217181
 C           -1.70501202       -2.20638632       -2.63639054
 C           -0.67954409       -1.57458711       -3.44546636
 C           -2.69382428       -0.04145075       -2.20373389
 C            0.34198740        0.61130852       -3.80812612
 C           -0.13636423        1.97648667       -3.67163474
 C           -1.47514730        1.90346544       -3.09920730
 C           -0.83020171       -0.24611343       -3.80013960
 C           -1.92004068        0.51948137       -3.21650457
