   70
C70 / DATE: 7/ 1/2024 / Origin: Program Fullerene / C70 from database
 C            1.62063773       -0.10052441        4.61288977
 C            0.81327763       -1.29244009        4.46819288
 C            1.55034450       -2.20481466        3.61647318
 C            2.67615889       -0.17615724        3.61547689
 C            2.48661183       -1.39137910        2.85706842
 C            2.66828421        1.06712289        2.89472227
 C            0.78528905        1.03773394        4.27740000
 C            1.52835265        1.85110887        3.34865589
 C           -0.51916617       -0.89586943        4.03870151
 C           -0.50189422        0.54513195        3.84689663
 C           -1.16148329       -1.70591337        3.10066436
 C            0.81250823       -3.14018295        2.92468461
 C           -0.63233654       -2.98076501        2.91176206
 C            1.16926405       -3.39907590        1.54814178
 C            2.35864530       -1.31541962        1.46296190
 C            1.71586907       -2.36019006        0.79015663
 C            2.91729682        1.05613142        1.53082071
 C            2.62831663       -0.10931799        0.79454667
 C            2.74300732        2.28182935        0.91371769
 C            0.83701100        2.56664474        2.37752933
 C            1.63014583        3.09681387        1.37331730
 C           -1.05306208        1.06229088        2.68526683
 C           -0.46916274        2.17023438        2.04532256
 C           -1.90134614       -1.10651265        2.06604366
 C           -1.98261979        0.28849399        2.00453107
 C           -2.42326512       -1.88364217        1.01508625
 C           -1.11176945       -3.79330906        1.82098003
 C            0.05520494       -4.15159331        1.02220924
 C           -2.08673652       -3.23165842        0.91359734
 C           -0.30621054       -3.95769869       -0.35599195
 C           -1.74580722       -3.76363248       -0.38761276
 C            1.35021807       -2.21074608       -0.55623000
 C            0.48557913       -3.14487662       -1.15766638
 C            2.39650023       -0.01679280       -0.58900260
 C            1.77472536       -1.07820781       -1.26962881
 C            2.77147020        2.35941395       -0.52177356
 C            2.66421016        1.18825887       -1.25602566
 C            1.00941178        3.67956552        0.20798691
 C            1.95047564        3.50176779       -0.88467083
 C           -1.07601507        2.67522627        0.88211262
 C           -0.34372744        3.46336453       -0.01744045
 C           -2.76118134        0.89670634        1.03746376
 C           -2.31978766        2.17083132        0.49834159
 C           -3.00881692       -1.26100861       -0.09441426
 C           -3.28230947        0.10053505       -0.05435115
 C           -2.28658889       -3.15814152       -1.50727734
 C           -2.99348515       -1.89645582       -1.33946193
 C            0.01041345       -2.91185722       -2.43925675
 C           -1.42361387       -3.00863588       -2.66398146
 C            1.47993188       -0.96519037       -2.63752662
 C            0.49120194       -1.77429632       -3.18215724
 C            2.40338262        1.30427273       -2.61357450
 C            1.70658548        0.23922199       -3.29173199
 C            1.49030771        3.60006054       -2.18703188
 C            1.88260821        2.56650218       -3.12855328
 C           -0.84785713        3.72192983       -1.29265749
 C            0.08088353        3.88463479       -2.40192277
 C           -2.72679689        2.21938226       -0.89576001
 C           -3.14942382        0.88285716       -1.27284899
 C           -1.97957299        2.96266721       -1.78988671
 C           -2.77070751       -1.09906474       -2.53925623
 C           -1.84469132       -1.82012596       -3.37934764
 C           -0.65442589       -1.13186458       -3.81242424
 C           -2.62182157        0.27701664       -2.41073853
 C            0.59454799        0.83510320       -4.01472723
 C            0.73562253        2.27113655       -3.96982360
 C           -0.38588457        3.04967303       -3.49749494
 C           -1.57475614        2.34895136       -3.04352255
 C           -0.65785650        0.25343241       -3.86324411
 C           -1.67012163        0.96131316       -3.18470586
