   70
C70 / DATE: 7/ 1/2024 / Origin: Program Fullerene / C70 from database
 C            1.63161215        0.03603227        4.55283133
 C            0.83280121       -1.17525047        4.55653152
 C            1.45305318       -2.12701344        3.65299036
 C            2.68291159       -0.13218143        3.56615812
 C            2.59029003       -1.46929309        3.02461655
 C            2.60084310        0.97382502        2.64430508
 C            0.78007517        1.12570453        4.10579360
 C            1.41080994        1.74263336        2.95805376
 C           -0.54421650       -0.79925660        4.32028347
 C           -0.56156020        0.60898712        3.94754102
 C           -1.34948662       -1.68153616        3.61668022
 C            0.64811077       -2.95193570        2.86985701
 C           -0.74551548       -2.82789041        2.94479595
 C            1.22659513       -3.53563903        1.74580554
 C            2.80004603       -1.66300367        1.66119178
 C            2.34192470       -2.85469446        1.10624790
 C            2.86663994        0.74915538        1.30532956
 C            3.02429721       -0.55957086        0.82263758
 C            2.45046503        1.72738841        0.41543787
 C            0.61487797        2.16463106        1.89441266
 C            1.22624937        2.35813455        0.65374038
 C           -1.30112006        1.00138465        2.83591680
 C           -0.76318119        1.93504467        1.93308360
 C           -2.36862706       -1.14518736        2.73294072
 C           -2.38981502        0.21722393        2.45234293
 C           -1.58273147       -3.14755971        1.79173951
 C           -2.55163042       -2.07922410        1.63480117
 C            0.38188294       -4.08785297        0.70292412
 C           -1.01617128       -3.71304210        0.66305328
 C            2.16656073       -2.95923890       -0.33111958
 C            0.97321907       -3.74783329       -0.57815358
 C            3.06627100       -0.75125233       -0.56400583
 C            2.38847250       -1.83939920       -1.11836484
 C            2.95097108        1.66267159       -0.86936980
 C            3.32281381        0.35379203       -1.37356536
 C            2.28311452        2.38627079       -1.92863443
 C            0.45678314        2.82215444       -0.41799479
 C            1.04546007        2.97144546       -1.68464326
 C           -1.54405971        2.38017356        0.86638612
 C           -0.92822757        2.96371246       -0.24487192
 C           -3.16776066        0.63564074        1.38460985
 C           -2.83659470        1.88366693        0.73417416
 C           -2.83708910       -1.56452719        0.37209839
 C           -3.46225571       -0.32422734        0.32997793
 C           -1.28805322       -3.12174986       -0.63866334
 C           -0.06448795       -3.17665754       -1.41646500
 C           -2.09188602       -1.98676682       -0.73591718
 C            1.57966313       -1.64626936       -2.24213906
 C            0.25899008       -2.08818099       -2.21317506
 C            2.93371960        0.30041906       -2.76989516
 C            2.45243158        1.61699805       -3.14584059
 C            1.92809093       -0.66563672       -3.15834559
 C            1.29553474        1.43972067       -3.99905706
 C            0.87108445        0.05092665       -3.85592899
 C            0.25657005        3.28465389       -2.79040685
 C            0.32234329        2.42567084       -3.96913838
 C           -1.73115567        3.38800399       -1.30440383
 C           -1.12595079        3.65640724       -2.59153070
 C           -3.44008579        1.82248194       -0.58175651
 C           -3.52018626        0.40823608       -0.91851890
 C           -2.98742136        2.69719809       -1.55165493
 C           -1.92196348       -1.12846293       -1.83102512
 C           -0.75209814       -1.21117503       -2.59954900
 C           -0.46432992       -0.23457675       -3.55522861
 C           -2.80981327       -0.06606411       -2.01643462
 C           -1.03542235        2.03055168       -4.27238383
 C           -1.91356181        2.96957463       -3.60299726
 C           -2.92738767        2.20098132       -2.91079318
 C           -1.44584821        0.68363405       -3.91336818
 C           -2.64588455        0.78701879       -3.10394954
