   70
C70 / DATE: 7/ 1/2024 / Origin: Program Fullerene / C70 from database
 C            1.32203808       -0.10691748        4.36234953
 C            2.61043993       -0.35097354        3.74166304
 C            2.57357285       -1.67282306        3.14340030
 C            0.47380415       -1.25763966        4.10353593
 C            1.24631704       -2.22490444        3.34596181
 C           -0.77659739       -0.78122492        3.53765043
 C            0.58198016        1.08232992        3.98597029
 C           -0.73275098        0.66797768        3.51892421
 C            1.23734665        2.10236376        3.30880702
 C            3.09052101        0.57955049        2.73536591
 C            2.50812486        1.83548534        2.64055009
 C            3.06953203       -1.56787460        1.78136341
 C            3.34245269       -0.16690946        1.51241903
 C            2.44766319       -2.32099591        0.79602065
 C            0.63777183       -2.85578242        2.26949573
 C            1.42976104       -3.19682441        1.17588278
 C           -1.30482910       -1.45262437        2.44284895
 C           -0.72834082       -2.66353875        2.06313509
 C           -2.09904917       -0.75663680        1.52761786
 C           -1.31896800        1.35068190        2.45745862
 C           -2.10004474        0.64855489        1.53096368
 C            0.46093313        2.96200580        2.43539533
 C           -0.85737026        2.63121031        2.14336913
 C            2.46282884        2.48628502        1.34352142
 C            1.32382777        3.38678119        1.34696484
 C            2.96245378        0.37906796        0.28543472
 C            2.73786291        1.75572431        0.19247972
 C            2.47489581       -1.85064580       -0.51463645
 C            2.54323135       -0.47354925       -0.74531779
 C            2.03466765       -2.69275480       -1.52690373
 C            0.89385909       -4.05403305        0.22304562
 C            1.29904524       -3.89123309       -1.16085211
 C           -1.35739042       -3.41986774        1.08492798
 C           -0.54077328       -4.27500269        0.23862495
 C           -2.72817172       -1.46424022        0.49567737
 C           -2.35097462       -2.78119481        0.24195209
 C           -3.33754244       -0.76843642       -0.54036458
 C           -2.80309479        1.35846121        0.55326373
 C           -3.43139680        0.67346284       -0.48031154
 C           -1.47526615        3.33605766        1.12174389
 C           -2.57848827        2.72411552        0.41059090
 C            0.73417028        3.74008945        0.13618773
 C           -0.63554182        4.00094011        0.13595107
 C            2.37161767        2.30753211       -1.02611330
 C            1.36996187        3.36573405       -1.05107371
 C            2.11260888        0.05708699       -1.96862790
 C            2.13099242        1.43542927       -2.15853726
 C            1.38517716       -2.12062154       -2.68797751
 C            1.42984137       -0.74734947       -2.88674463
 C            0.10560319       -3.95816943       -1.99029841
 C           -1.03014328       -4.16263615       -1.12526339
 C           -2.08700515       -3.17291162       -1.13480084
 C            0.10801716       -2.79662185       -2.85302962
 C           -3.02075136       -1.14100814       -1.91132687
 C           -2.12951364       -2.19045454       -2.12430370
 C           -1.04129322       -2.01903622       -3.00095817
 C           -3.34047857        1.17909286       -1.84353529
 C           -2.93628347        0.07432620       -2.69790584
 C           -2.61491927        3.31490888       -0.91715676
 C           -1.36971139        4.03960453       -1.11503083
 C           -2.81692397        2.44661584       -2.06140955
 C            0.61645442        3.23264964       -2.29158438
 C            1.11630396        2.05974086       -2.99190262
 C           -0.74087673        3.52944170       -2.31595592
 C           -1.67396847        2.60905801       -2.94860604
 C            0.42747614       -0.18592401       -3.67499914
 C           -0.88375195       -0.81455623       -3.68461170
 C           -1.87981370        0.23503544       -3.57802066
 C            0.23991935        1.25292342       -3.70279547
 C           -1.19105001        1.51559175       -3.65955913
