   70
C70 / DATE: 7/ 1/2024 / Origin: Program Fullerene / C70 from database
 C            1.00476386       -0.04678240        4.60840830
 C            2.27564335       -0.32669749        3.98248876
 C            2.22751414       -1.70361216        3.52434487
 C            0.17938104       -1.23860085        4.46485746
 C            0.83899796       -2.09695327        3.50271398
 C           -1.16609387       -0.80059516        4.18955296
 C            0.22353727        1.07014521        4.12037118
 C           -1.15918310        0.65524423        4.17532461
 C            0.64297784        1.78335050        3.00015772
 C            2.68842150        0.48146085        2.85104211
 C            1.85044349        1.47095533        2.35731152
 C            2.94742541       -1.76234610        2.27929816
 C            3.32787360       -0.40972741        1.90341089
 C            2.45420879       -2.56558915        1.26992907
 C            0.24607213       -2.35730596        2.26190077
 C            1.06073638       -2.76050559        1.19456378
 C           -1.79465889       -1.23018514        2.95936897
 C           -1.07421347       -1.95684658        2.00632509
 C           -2.03905524        1.08132843        3.10324573
 C           -2.60431357       -0.11550902        2.51101526
 C           -0.29941339        2.54754715        2.31229129
 C           -1.62627941        2.09496950        2.24265188
 C            0.17393334        3.41812939        1.33772706
 C            2.05144132        1.90144064        1.04859372
 C            1.38127919        3.03990481        0.62597253
 C            3.31834983       -0.09413298        0.53984282
 C            2.55805406        1.00259862        0.10225058
 C            3.16690345       -2.48286190        0.08934651
 C            3.55786995       -1.14875573       -0.34118701
 C            2.68013986       -3.20248038       -1.05661260
 C            0.46982332       -3.06001793       -0.04119567
 C            1.27758775       -3.54560228       -1.07103257
 C           -1.56115228       -1.97267713        0.69582431
 C           -0.81730872       -2.57738638       -0.32491704
 C           -2.95227797       -0.06804140        1.17401108
 C           -2.66461135       -1.17405422        0.38074510
 C           -2.34333969        2.25669908        1.05435111
 C           -3.08644691        1.17814481        0.56351025
 C           -0.75568535        3.97490560        0.37610979
 C           -2.03993838        3.32857185        0.21985851
 C            1.14198834        3.23595309       -0.78868527
 C           -0.10123933        3.97757244       -0.92078138
 C            2.11315386        1.07408699       -1.23014266
 C            1.40852327        2.19677147       -1.67297244
 C            3.17880680       -1.02411429       -1.73276476
 C            2.93483470       -2.37125665       -2.21809729
 C            2.31847480        0.00152485       -2.10583537
 C            0.84751778       -3.40584348       -2.44302865
 C            1.83732860       -2.58676565       -3.13178518
 C           -1.31455755       -2.59052828       -1.64148426
 C           -0.44751414       -2.82384445       -2.69953479
 C           -3.21125741       -1.22790889       -0.89017421
 C           -2.46300822       -1.87011687       -1.94703063
 C           -3.62280952        1.22882780       -0.71987563
 C           -3.80818082       -0.02025312       -1.43827507
 C           -2.30877270        3.23398122       -1.20519233
 C           -1.07209487        3.54453910       -1.90930012
 C           -3.12712544        2.21264231       -1.66683359
 C            0.68629540        2.12474362       -2.86061513
 C           -0.64203994        2.71614231       -2.93722103
 C            1.50030245       -0.15418966       -3.23316474
 C            1.14056897       -1.43030976       -3.65293256
 C           -0.26833885       -1.76955112       -3.68431161
 C            0.65403749        0.88012624       -3.59990177
 C           -2.42212916       -0.95643634       -3.08089292
 C           -3.30088779        0.16004998       -2.78821083
 C           -2.78568722        1.51056784       -2.89499500
 C           -1.54370963        1.71306752       -3.48241615
 C           -1.20299127       -0.73791989       -3.72007520
 C           -0.73889585        0.57031224       -3.89724231
