   70
C70 / DATE: 7/ 1/2024 / Origin: Program Fullerene / C70 from database
 C            1.13834378        0.03072033        4.67967814
 C            2.32051444       -0.26811015        3.91165267
 C            2.15760995       -1.60811148        3.36261991
 C            0.29528587       -1.15395700        4.64516180
 C            0.77613043       -1.97950435        3.55214169
 C           -1.07710005       -0.69866845        4.61394902
 C            0.31275623        1.14737392        4.26971115
 C           -1.05666441        0.75456625        4.54707040
 C            0.58956279        1.83049521        3.08155762
 C            2.66072833        0.59469280        2.79991282
 C            1.74744063        1.54323104        2.33961016
 C            2.67947939       -1.57514709        2.01674911
 C            3.28459088       -0.27198362        1.82784352
 C            1.92047307       -2.08427632        0.96767528
 C           -0.03411261       -2.17161886        2.43152268
 C            0.54797685       -2.31059459        1.15511796
 C           -1.92747843       -1.15758719        3.53808899
 C           -1.42016441       -2.01256756        2.56126185
 C           -2.09851479        1.17044015        3.62429111
 C           -2.74026939       -0.03057963        3.11375174
 C           -0.43405985        2.57078223        2.49663838
 C           -1.82206425        2.19920894        2.74137816
 C           -0.32325331        2.97767919        1.11028113
 C            1.85609224        1.96081401        1.00457883
 C            0.78026449        2.59286098        0.37425874
 C            3.38663132        0.17498684        0.52582284
 C            2.88979949        1.44038751        0.21622971
 C            2.38824333       -1.81519249       -0.31817971
 C            3.33191415       -0.79247787       -0.46562528
 C            1.62410254       -2.20413135       -1.41477813
 C           -0.26621034       -2.54402025        0.03932744
 C            0.24690841       -2.38060401       -1.25222849
 C           -2.23405932       -2.25299559        1.46652703
 C           -1.63917967       -2.65895193        0.21070098
 C           -3.25141059       -0.04934295        1.81682386
 C           -3.27283320       -1.28202637        1.16373986
 C           -2.51246434        2.22651730        1.46815419
 C           -1.63569650        2.86838483        0.50161208
 C           -3.27658679        1.13315346        1.06250757
 C           -1.74733130        2.50316628       -0.83764673
 C            0.66632726        2.54328159       -1.01100637
 C           -0.58180805        2.28646479       -1.59260951
 C            3.00449469        1.87010356       -1.10665107
 C            1.82410706        2.40893854       -1.76131335
 C            3.75164479       -0.41867799       -1.73204665
 C            3.66697266        0.99151105       -2.06106155
 C            2.17477013       -2.08590346       -2.68751028
 C            3.28645265       -1.17399962       -2.87644961
 C            1.29911048       -1.92149128       -3.82460203
 C           -0.63265680       -2.18984110       -2.33301206
 C           -0.13001185       -1.88924167       -3.59610487
 C           -2.52302539       -2.21589733       -0.85105747
 C           -3.53444643       -1.34774660       -0.25799327
 C           -1.97432315       -1.89468053       -2.08611205
 C           -3.66628243        1.08990327       -0.27500505
 C           -2.94746874        1.92009174       -1.22976378
 C           -3.91163090       -0.19053239       -0.91654314
 C           -2.62682678       -0.97370859       -2.90714442
 C           -3.04824697        1.29035700       -2.52376788
 C           -3.57878694       -0.05000835       -2.32023023
 C           -0.65168265        1.70545895       -2.87209288
 C           -0.63566815       -0.70794275       -4.27177272
 C           -1.85200502        1.16241664       -3.32672644
 C           -1.84413956       -0.19218206       -3.84553664
 C            1.74095334        1.83541457       -3.09050770
 C            2.97557803        1.10562128       -3.33126395
 C            2.91194387       -0.22140883       -3.91048321
 C            1.65519871       -0.66530817       -4.47000301
 C            0.52331419        1.31570541       -3.52077499
 C            0.49274689        0.19629017       -4.36034386
