   70
C70 / DATE: 7/ 1/2024 / Origin: Program Fullerene / C70 from database
 C            1.23960852        0.08358549        4.38635822
 C            2.55248949       -0.19523534        3.84768035
 C            2.57119745       -1.59222841        3.44869649
 C            0.41551152       -1.09921201        4.18695074
 C            1.19473583       -2.05839423        3.43604806
 C           -0.85109547       -0.66190777        3.64239493
 C            0.50181709        1.21160029        3.85596260
 C           -0.87530499        0.78558525        3.67264500
 C            1.07407712        2.02109960        2.87741786
 C            3.01347979        0.58046703        2.71261944
 C            2.17258549        1.54327438        2.14737248
 C            3.34728147       -1.68953596        2.22481695
 C            3.73500105       -0.33688877        1.84709073
 C            2.91646393       -2.57267432        1.24305265
 C            0.67741854       -2.58838957        2.25605645
 C            1.56853033       -3.11621330        1.32926874
 C           -1.36481109       -1.28883445        2.52441153
 C           -0.62188983       -2.26396448        1.84402701
 C           -2.40734891       -0.65955806        1.86555320
 C           -1.64695341        1.47262987        2.73506056
 C           -2.44781544        0.74492960        1.83359233
 C            0.23836288        2.96594580        2.29540925
 C           -1.19627469        2.73996531        2.37708690
 C            0.51212438        3.41536160        0.94605090
 C            2.29583557        1.84546450        0.78389362
 C            1.34746269        2.64458548        0.15146505
 C            3.87470564       -0.01328789        0.50579175
 C            3.25385921        1.20349151        0.01427833
 C            3.18265888       -2.27770794       -0.15543816
 C            3.68918387       -1.03863885       -0.51070522
 C            1.11649442       -3.39037625       -0.01853922
 C            2.10689371       -2.85428199       -0.94129413
 C           -1.11692693       -2.77336396        0.63419585
 C           -0.22950532       -3.25822957       -0.33423089
 C           -3.12769805       -1.41229081        0.95459828
 C           -2.44150885       -2.50086070        0.28279233
 C           -3.96948067       -0.74234450       -0.00598308
 C           -3.12405578        1.41307013        0.79394777
 C           -3.82063209        0.68594078       -0.16404227
 C           -1.80638221        3.42604552        1.26370083
 C           -0.73441885        3.90242910        0.40288440
 C           -2.74503916        2.70117442        0.43888765
 C           -1.07379026        3.55078960       -0.95470336
 C           -2.40809963        2.97082472       -0.94870132
 C            1.07175037        2.46459232       -1.21737387
 C           -0.11293352        2.98306867       -1.77819424
 C            3.00570585        1.02657557       -1.40006839
 C            3.18476184       -0.38552355       -1.70417216
 C            1.95276210        1.70263537       -2.00709692
 C            1.66714067       -2.22982354       -2.10810645
 C            2.24494994       -1.01807448       -2.51785636
 C           -0.55855229       -3.16563281       -1.68385615
 C            0.42285178       -2.61543316       -2.60567447
 C           -2.83063211       -2.46813991       -1.11820692
 C           -3.75465531       -1.36581237       -1.29997597
 C           -1.86960345       -2.69491060       -2.08777821
 C           -3.56773262        0.96023434       -1.57259219
 C           -2.73709479        2.02703843       -1.92334090
 C           -3.42195481       -0.31988609       -2.25024279
 C           -0.57430629        2.49019394       -2.99075056
 C           -1.90593307        1.90508060       -3.03885618
 C            1.52867767        1.20762765       -3.23618857
 C            1.60336297       -0.22636275       -3.46981079
 C            0.29858608        1.69023684       -3.81464702
 C           -0.28142000       -1.78104020       -3.56076363
 C           -1.68207062       -1.72453664       -3.15913813
 C           -2.36340057       -0.50314251       -3.13336362
 C           -1.79092003        0.62218505       -3.71518049
 C            0.33954664       -0.64650191       -4.04957425
 C           -0.45763366        0.54151091       -4.28561235
