   70
C70 / DATE: 7/ 1/2024 / Origin: Program Fullerene / C70 from database
 C            1.23707038        0.15643452        4.72076337
 C            2.47612434        0.01299953        3.98797788
 C            2.48029749       -1.31033933        3.38871094
 C            0.40801733       -1.00311793        4.42214220
 C            1.14778470       -1.86094803        3.51252393
 C           -0.89919721       -0.52361419        4.01055862
 C            0.43702996        1.34110143        4.49707548
 C           -0.92254866        0.90863744        4.22087711
 C            0.81770909        2.27198661        3.44654762
 C            2.80016918        0.96737025        2.93890463
 C            1.97513285        2.06587030        2.69117431
 C            3.04226897       -1.18865364        2.06125039
 C            3.33191426        0.21198141        1.81417594
 C            2.48582076       -1.91761970        1.02574302
 C            0.51190495       -2.32330078        2.36384040
 C            1.26763093       -2.58243890        1.21462496
 C           -1.45631080       -1.03050768        2.84189884
 C           -0.86261614       -2.13711043        2.24023035
 C           -2.31412579       -0.22746375        2.08516175
 C           -1.44332822        1.74567574        3.15889308
 C           -0.40602787        2.68318270        2.77414596
 C           -2.19340699        1.16556590        2.14857631
 C           -0.34212482        3.09390840        1.44526014
 C            2.08278851        2.70535709        1.46081436
 C            0.91183895        3.35489104        0.89624443
 C            3.17067091        0.71144240        0.52072958
 C            2.77858245        2.03837790        0.36929626
 C            2.83773823       -1.54814694       -0.25874285
 C            2.98248079       -0.18420988       -0.54040257
 C            2.52074913       -2.43275921       -1.27306233
 C            0.64434961       -3.18130837        0.10968409
 C            1.32104627       -3.23175957       -1.11134511
 C           -1.52360902       -2.75238252        1.19045195
 C           -0.74269744       -3.32416159        0.10664469
 C           -3.00531919       -0.79814055        1.01226189
 C           -2.68193587       -2.09518955        0.60963436
 C           -3.70382785        0.03656132        0.14100785
 C           -2.40062719        1.90741579        0.99369719
 C           -1.42200236        2.82618155        0.59470054
 C           -3.34473648        1.44171483        0.08729207
 C           -1.34689994        3.22843512       -0.73787610
 C            1.08119970        3.37916193       -0.54643693
 C            2.16708067        2.47084336       -0.87670272
 C           -0.04360350        3.40102927       -1.35289598
 C            2.62366036        0.30554462       -1.80199696
 C            2.00329300        1.55308807       -1.90805695
 C            2.58676389       -1.98302134       -2.64626967
 C            2.61991299       -0.55748709       -2.89312598
 C            0.56235912       -3.11977504       -2.34826127
 C            1.43514942       -2.53001696       -3.34396069
 C           -1.48040592       -3.11440214       -1.13133878
 C           -2.73279340       -2.46233662       -0.79915381
 C           -0.78258641       -2.75925687       -2.28272368
 C           -3.96980911       -0.40401831       -1.21696015
 C           -3.30403322       -1.59378199       -1.71118770
 C           -3.27630310        1.83786505       -1.30828946
 C           -2.22533379        2.63316390       -1.72999599
 C           -3.65563127        0.69526120       -2.11449437
 C           -0.03953270        2.64030690       -2.58981250
 C            1.00705731        1.76863352       -2.86944576
 C           -1.40322327        2.20881380       -2.85737483
 C            1.70913624       -0.29470793       -3.98680675
 C            0.90858030       -1.49237329       -4.19666391
 C            0.80131901        0.82817291       -3.87020911
 C           -1.31314378       -1.79845487       -3.16229466
 C           -2.55740179       -1.22692055       -2.90208522
 C           -2.72812420        0.20370696       -3.11633457
 C           -1.62062339        0.97256345       -3.47387030
 C           -0.48214658       -1.11706428       -4.05077687
 C           -0.54859474        0.33354362       -4.09456196
