   70
C70 / DATE: 7/ 1/2024 / Origin: Program Fullerene / C70 from database
 C            1.50964122        0.08988563        4.68323632
 C            0.74064814       -1.13792645        4.63454216
 C            1.38001599       -2.03514522        3.68637114
 C            2.64684489       -0.06811601        3.79464801
 C            2.64023914       -1.42765092        3.28809155
 C            2.62061852        1.02116421        2.83520212
 C            0.67082135        1.14556885        4.14381664
 C            1.36978196        1.73613303        3.02311998
 C           -0.64416003       -0.77650575        4.39850672
 C           -0.65039387        0.59550523        3.91147055
 C           -1.43905574       -1.69911995        3.74190246
 C            0.57549829       -2.67020607        2.73848273
 C           -0.78214487       -2.78497123        3.02580637
 C            1.01205196       -2.76449857        1.40858714
 C            3.10771897       -1.63999553        2.00255556
 C            2.34005848       -2.48919564        1.11019993
 C            3.04786109        0.77261471        1.53168210
 C            3.53440011       -0.49222310        1.21694738
 C            2.52962706        1.55038960        0.49718569
 C            0.64841984        2.08064922        1.89168132
 C            1.34929722        2.26889719        0.71093135
 C           -1.29670324        0.88693363        2.70856209
 C           -0.71844719        1.79945532        1.81705296
 C           -2.47390722       -1.20703570        2.85677020
 C           -2.32202507        0.04685811        2.26372044
 C           -1.69161980       -3.22372289        1.98849795
 C           -2.83527075       -2.32725006        2.02097746
 C            0.09025300       -2.87349368        0.35897953
 C           -1.21272404       -3.26359206        0.62254537
 C            0.40602805       -2.37975786       -0.91014702
 C            2.69871361       -2.11530233       -0.24528015
 C            3.52272406       -0.91711260       -0.16878563
 C            1.74885593       -2.19570258       -1.26020864
 C            2.96033866        1.32027771       -0.81143310
 C            3.37370417        0.02930338       -1.17391216
 C            2.57295778        2.23278100       -1.79282644
 C            0.68123278        2.82952070       -0.36794968
 C            1.38361464        3.03196089       -1.55368799
 C           -1.39953410        2.13026620        0.64460067
 C           -0.71457163        2.81449973       -0.37029528
 C           -2.92763933        0.30366957        1.02763985
 C           -2.61534273        1.49764904        0.36797424
 C           -3.20155361       -2.04762325        0.65735235
 C           -2.27651089       -2.74994411       -0.21601073
 C           -3.52599941       -0.74859457        0.30914592
 C           -0.61885374       -1.94721847       -1.77081961
 C           -1.96355730       -2.14702271       -1.43348246
 C           -0.30342136       -1.17256240       -2.88917352
 C            2.06297675       -1.56766265       -2.46235002
 C            3.01812489       -0.47360861       -2.42149060
 C            0.99854341       -1.16988825       -3.36019742
 C            2.56453675        1.83565241       -3.18911702
 C            2.70777442        0.43353117       -3.50338629
 C            1.46667123       -0.02225911       -4.11182388
 C            0.66576379        3.16655300       -2.81232542
 C            1.31627818        2.29106559       -3.77345366
 C            0.58809740        1.12261666       -4.24283084
 C           -1.39615364        3.23753266       -1.50567226
 C           -0.72051981        3.18479432       -2.78882380
 C           -3.33224133        1.84575996       -0.77353135
 C           -2.74840209        2.76574743       -1.72970831
 C           -3.77906478       -0.56317732       -1.03958162
 C           -2.92308500       -1.28525190       -1.96981677
 C           -3.94462442        0.78165262       -1.53451736
 C           -1.21102447       -0.21889322       -3.35870969
 C           -0.74969085        1.00004647       -3.88063512
 C           -1.42354701        2.17793074       -3.56080893
 C           -2.77103633        2.11799571       -3.03592021
 C           -2.55440658       -0.36253681       -3.02838687
 C           -3.38350152        0.81990591       -2.87168641
