   70
C70 / DATE: 7/ 1/2024 / Origin: Program Fullerene / C70 from database
 C            1.46558144        0.04784253        5.02952844
 C            0.67501773       -1.10782811        4.64563837
 C            1.55306015       -1.98842025        3.91793428
 C            2.64773830        0.06623763        4.18192034
 C            2.76190771       -1.23991926        3.58575916
 C            2.54215610        1.21802894        3.30706699
 C            0.69197403        1.23000473        4.71119686
 C            1.52001655        2.07931361        3.87868519
 C           -0.52762506       -0.63341192        3.98279067
 C           -0.58960436        0.80467779        4.17507673
 C           -0.89886203       -1.16312777        2.74333108
 C            1.07026758       -2.56549322        2.68307546
 C           -0.20756824       -2.25861846        2.20663282
 C            2.93585238       -1.33515814        2.14953572
 C            2.16689930       -2.48598922        1.74357814
 C            2.59670356        1.05793058        1.91586819
 C            2.87119634       -0.19643419        1.34639117
 C            2.11756524        2.09251611        1.10715635
 C            0.86862753        2.95604622        3.03210515
 C            1.38789179        3.12898524        1.69210177
 C           -1.15942433        1.57885469        3.17375827
 C           -0.56879143        2.80872887        2.87210288
 C           -1.72859240       -0.40454515        1.91401129
 C           -1.93623502        0.95175762        2.20112700
 C           -2.18376971       -0.95044179        0.70726288
 C           -0.48560467       -2.65525032        0.89555290
 C           -1.59744146       -2.13028225        0.23059286
 C            1.83408943       -2.60278547        0.41219771
 C            0.58566772       -3.12660872        0.13618715
 C            2.66000639       -0.38785049       -0.02371166
 C            2.34037095       -1.67270501       -0.49176135
 C            2.08869779        1.93897180       -0.28002096
 C            2.45746970        0.71824417       -0.84654791
 C            1.41659071        2.88642724       -1.05518345
 C            0.32758545        3.76749698        0.93359330
 C           -0.91971583        3.48646993        1.63315361
 C            0.37338176        3.68987367       -0.44883159
 C           -2.59970855        1.75246741        1.28294034
 C           -2.01765239        3.03275247        0.91739411
 C           -3.05787250       -0.21403319       -0.10379108
 C           -3.14909658        1.15836152        0.08674370
 C           -3.37314011       -0.68179933       -1.37454000
 C           -1.88950567       -2.59334915       -1.05826704
 C           -2.89848146       -1.98041410       -1.79438119
 C            0.36321356       -3.52309501       -1.16547875
 C           -0.97849065       -3.43848771       -1.69296030
 C            2.03959438       -1.87535410       -1.84404049
 C            1.24949192       -2.97889308       -2.17916211
 C            2.34047219        0.53076348       -2.22136724
 C            2.14912900       -0.81308848       -2.73879663
 C            0.95684247        2.53640625       -2.38422929
 C            1.49936845        1.42630556       -3.00118054
 C           -0.84845973        3.44974195       -1.20335621
 C           -2.01585552        3.11926661       -0.53399308
 C           -2.83013950        2.02941856       -1.03262341
 C           -0.48681119        2.71285900       -2.40383534
 C           -3.19065738        0.22840034       -2.49703474
 C           -2.54097522        1.43182423       -2.25384780
 C           -1.29706808        1.67158949       -2.86286890
 C           -2.83422222       -1.94985762       -3.24963966
 C           -2.82015149       -0.55414476       -3.65192369
 C           -0.83871476       -3.42283843       -3.14040039
 C            0.52430387       -3.00624322       -3.43718808
 C           -1.73442871       -2.60462644       -3.92572749
 C            1.24549453       -0.71531803       -3.88097550
 C            0.64349223        0.60451358       -3.83439316
 C           -0.74320117        0.72532524       -3.73806854
 C           -1.54010619       -0.28681607       -4.26657157
 C            0.45814815       -1.80113810       -4.23807172
 C           -0.93789277       -1.57403753       -4.57722001
