   70
C70 / DATE: 7/ 1/2024 / Origin: Program Fullerene / C70 from database
 C            1.26405361       -0.13685721        4.58379715
 C            2.56641560       -0.34555841        3.98038864
 C            2.50680214       -1.57160799        3.20688866
 C            0.42400003       -1.27247471        4.23774018
 C            1.16964359       -2.12838878        3.34461891
 C           -0.85163428       -0.76654526        3.78259654
 C            0.53031298        1.07742039        4.26633673
 C           -0.77546053        0.68702818        3.76180553
 C            1.19204986        2.13868132        3.66522241
 C            3.10772860        0.69159672        3.12469570
 C            2.56472736        1.96676614        3.19415401
 C            2.99917143       -1.28856808        1.86540512
 C            3.36947014        0.10864545        1.81184967
 C            2.31707394       -1.84296917        0.79443702
 C            0.54749937       -2.59481066        2.19479799
 C            1.34889755       -2.79544634        1.08004724
 C           -1.50029004       -1.40329416        2.72952770
 C           -0.82722432       -2.39323665        1.99814052
 C           -2.52135808       -0.69572332        2.11556443
 C           -1.35397481        1.37024137        2.68989702
 C           -2.41623610        0.75336967        2.04367998
 C            0.48621338        2.91969191        2.66615945
 C           -0.63072529        2.37285508        2.03109140
 C            2.73641957        2.83565797        2.04978340
 C            1.49770144        3.57473752        1.87345724
 C            3.09388800        0.84923340        0.66237794
 C            3.06239197        2.23308165        0.76848024
 C            2.23271635       -1.14576350       -0.41516369
 C            2.49243006        0.22974999       -0.44498889
 C            1.58348796       -1.76464854       -1.48853161
 C            0.82275095       -3.51491342        0.03269026
 C            1.14984502       -3.07871426       -1.30770038
 C           -1.40469034       -2.91998158        0.83075127
 C           -0.60306610       -3.75698985        0.04733832
 C           -3.06032647       -1.16506839        0.86153196
 C           -2.54758628       -2.31410697        0.27627161
 C           -2.76644915        1.15530229        0.69852155
 C           -3.31543158       -0.00371927        0.02232639
 C           -0.89160561        2.67310964        0.67668328
 C           -1.92090732        1.99849035       -0.00056089
 C            1.27131808        3.68842010        0.45712414
 C            2.34893844        2.99139034       -0.22565335
 C           -0.01150695        3.50506191       -0.04051212
 C            2.06044115        0.99941774       -1.53793706
 C            2.03168747        2.40332341       -1.43739592
 C            1.05735562       -0.98606277       -2.52949682
 C            1.41593107        0.36934340       -2.61883850
 C            0.12252723       -1.53455129       -3.43537351
 C            0.13004714       -3.62947150       -2.16799070
 C           -0.96904938       -4.07355500       -1.31651503
 C           -0.42345724       -2.79067652       -3.19805532
 C           -2.91003688       -2.55231209       -1.04923949
 C           -2.19120271       -3.52347969       -1.84548438
 C           -1.87026207       -2.89734545       -3.11428031
 C           -3.15979401       -0.12796448       -1.35391457
 C           -3.21561088       -1.41249422       -1.90314628
 C           -2.64832627       -1.67522154       -3.21912738
 C           -1.97022394        1.99164052       -1.39502094
 C           -2.56421308        0.91322862       -2.07691286
 C           -0.10069933        3.54165948       -1.42717661
 C            1.07112493        3.09063701       -2.16096101
 C           -1.24219798        2.95182352       -2.08513016
 C            0.91062373        1.15077734       -3.66296200
 C            0.62640805        2.54267082       -3.41172025
 C           -0.81853542        2.69694382       -3.44687095
 C           -0.66046830       -0.68114206       -4.20104090
 C           -2.08582678       -0.62046511       -3.91709422
 C           -2.32364101        0.72282257       -3.43948615
 C           -0.21565433        0.66916313       -4.42718418
 C           -1.34442098        1.54014545       -4.12471315
