   70
C70 / DATE: 7/ 1/2024 / Origin: Program Fullerene / C70 from database
 C            1.50164132        0.10168229        5.11253250
 C            0.70502477       -1.11443119        5.08115729
 C            1.49669245       -2.13601273        4.42668536
 C            2.64445633       -0.09390055        4.23800898
 C            2.71695399       -1.50508462        3.94041262
 C            2.53566700        0.84420152        3.12797599
 C            0.70065800        1.16515106        4.54364389
 C            1.42792394        1.73263168        3.41897276
 C           -0.60169489       -0.78399321        4.53765869
 C           -0.63256087        0.64680721        4.28804031
 C           -1.19867699       -1.63892623        3.61955082
 C            0.91230571       -2.88415458        3.32369756
 C           -0.42717728       -2.71523558        3.00686204
 C            2.88178149       -1.89170195        2.55976206
 C            1.88659855       -2.90299208        2.25176815
 C            2.70439625        0.39259872        1.81657875
 C            3.13714572       -0.92264659        1.59370657
 C            2.11698480        1.12315657        0.76765255
 C            0.67348881        2.21104988        2.35859949
 C            1.18150886        2.11939425        1.05968140
 C           -1.28873081        1.13292878        3.16274886
 C           -0.70659513        2.21942933        2.51741469
 C           -2.06246381       -1.08009504        2.59398005
 C           -2.12926620        0.29581558        2.41677882
 C           -0.84066524       -2.82150720        1.61777117
 C           -1.95963146       -1.91949206        1.41855452
 C            1.47647644       -3.00430073        0.92495788
 C            0.11001096       -2.94117109        0.60475775
 C            3.18593813       -1.38654878        0.29091616
 C            2.39665160       -2.56777639       -0.02069346
 C            2.32265076        0.73068157       -0.55718561
 C            2.99518110       -0.45676814       -0.80000116
 C            1.54905895        1.27976259       -1.58428444
 C            0.43997616        2.70775507        0.02902512
 C            0.63770414        2.30580980       -1.30157127
 C           -1.45129805        2.86588622        1.55584551
 C           -0.74846357        3.34514057        0.38664865
 C           -2.64150271        0.78719426        1.21348465
 C           -2.61097266        2.16617971        1.05150383
 C           -2.12308537       -1.33601739        0.17053260
 C           -2.63138654       -0.04059951        0.07442203
 C           -0.27539633       -2.62701287       -0.70601178
 C           -1.44232289       -1.87292866       -0.91578774
 C            1.99455732       -2.46548768       -1.40083762
 C            2.60246847       -1.25912637       -1.93786900
 C            0.67282372       -2.72496007       -1.72783770
 C            1.58339726        0.69416781       -2.85904667
 C            1.95069971       -0.65042290       -2.99458052
 C            0.92941972        1.32210149       -3.91550324
 C           -0.19670202        2.80805683       -2.31665648
 C           -0.02524649        2.37468594       -3.62853256
 C           -1.76975085        3.57156451       -0.60670266
 C           -2.91071882        2.74111906       -0.23618395
 C           -1.46711796        3.27245559       -1.98263096
 C           -2.86270964        0.49483601       -1.20262045
 C           -3.15082482        1.85167434       -1.34639468
 C           -2.61988706        2.55334266       -2.49532323
 C           -1.76315507       -1.42679172       -2.19596792
 C           -2.48211102       -0.22863621       -2.34236735
 C            0.29292968       -2.41918838       -3.02752993
 C            1.13721961       -1.48685168       -3.75055484
 C           -1.06034792       -1.97279658       -3.26617726
 C            0.37918338        0.50947211       -4.99302655
 C            0.34229517       -0.92422734       -4.81677625
 C           -1.04058838       -1.30335986       -4.55309472
 C           -1.22787253        2.09485086       -4.40103453
 C           -2.45015262        1.84388912       -3.66489118
 C           -2.57834196        0.39836570       -3.59296527
 C           -0.98732474        0.93043457       -5.22634011
 C           -1.85712757       -0.12912730       -4.73530898
