   70
C70 / DATE: 7/ 1/2024 / Origin: Program Fullerene / C70 from database
 C            1.45254730        0.12996169        5.37330993
 C            0.63917883       -1.06200806        5.22752638
 C            1.51436928       -2.10601440        4.74001697
 C            2.64557206       -0.06041957        4.56255398
 C            2.70837124       -1.45914266        4.20857206
 C            2.60824019        0.92498102        3.49836754
 C            0.71402556        1.23874360        4.79915769
 C            1.59302060        1.90054527        3.85884131
 C           -0.53816523       -0.70716047        4.44634971
 C           -0.55313781        0.73710166        4.29541118
 C           -0.92510120       -1.49611871        3.36452971
 C            1.01140027       -2.99154236        3.71175643
 C           -0.27594401       -2.70521546        3.10296150
 C            2.80356671       -1.81734288        2.80717372
 C            1.98236409       -2.99338756        2.63168370
 C            2.71334339        0.52822031        2.16079586
 C            2.74928556       -0.83208875        1.82104297
 C            2.38228449        1.45998375        1.17272753
 C            0.99767260        2.61191725        2.83331429
 C            1.61478876        2.56831713        1.52450648
 C           -1.04727019        1.28251938        3.11269760
 C           -0.42617954        2.41846929        2.59878983
 C           -1.68626361       -0.92272404        2.34724889
 C           -1.77078656        0.47192245        2.23891070
 C           -1.99830083       -1.70529564        1.23697338
 C           -0.17014678       -3.14955577        1.72383433
 C            1.24029812       -3.11778301        1.39297703
 C           -1.05076349       -2.62011073        0.78941993
 C            2.41021661       -1.21164872        0.52038062
 C            1.60958528       -2.33811295        0.30722303
 C            2.41220374        1.08537190       -0.17025479
 C            2.49238457       -0.26930665       -0.49646059
 C            1.87020192        1.96372019       -1.11276654
 C            0.60856788        3.03750432        0.59193720
 C           -0.67935179        2.80095750        1.21841472
 C            0.75139181        2.70399406       -0.74495448
 C           -2.29207873        1.03013140        1.06843323
 C           -1.64589175        2.12407455        0.48546153
 C           -2.89869550       -1.20318399        0.31172181
 C           -3.10820487        0.23278047        0.27611860
 C           -2.77648620       -1.63783139       -1.06612345
 C           -0.62058668       -2.52043623       -0.53671016
 C            0.73913443       -2.31903833       -0.77866672
 C           -1.54757239       -2.12861397       -1.50211159
 C            2.13071453       -0.65778712       -1.78312462
 C            1.12330303       -1.61860479       -1.91467491
 C            2.03113190        1.65890764       -2.45816678
 C            2.30720370        0.27629128       -2.79281536
 C            1.01757814        2.11118389       -3.39559471
 C           -0.39845696        2.59252480       -1.52462594
 C           -1.60350137        2.23078833       -0.90743612
 C           -0.24820597        2.43591601       -2.90154427
 C           -3.34486057        0.60204002       -1.11076727
 C           -3.45965869       -0.63991963       -1.86184237
 C           -2.62807648        1.66134530       -1.66242331
 C           -3.20872875       -0.60636671       -3.22128223
 C           -1.11357229       -1.80960276       -2.79205456
 C            0.25214163       -1.57199179       -3.00538105
 C           -2.06639185       -1.35895613       -3.71215643
 C            1.73610171        0.01496096       -4.09898590
 C            1.15067791        1.25977844       -4.56489524
 C            0.70344259       -0.99170695       -4.19102669
 C           -1.65115813       -0.73603913       -4.95491219
 C           -0.03338969        0.91982010       -5.32440666
 C           -0.24192930       -0.51639317       -5.18179965
 C           -1.38281800        2.24585046       -3.68834744
 C           -2.60555148        1.79295042       -3.04902088
 C           -3.13091517        0.69715098       -3.84546596
 C           -1.27673746        1.57270881       -4.97595617
 C           -2.31143109        0.55801585       -5.03438633
