   70
C70 / DATE: 7/ 1/2024 / Origin: Program Fullerene / C70 from database
 C            1.28945120       -0.08180180        4.30647961
 C            2.57346865       -0.46580658        3.76810502
 C            2.55885570       -1.90159398        3.55244687
 C            0.44053560       -1.26326040        4.33210842
 C            1.21830911       -2.38644818        3.84772920
 C           -0.80202571       -0.92494674        3.66055064
 C            0.54968412        0.97257273        3.64013539
 C           -0.81148644        0.51613078        3.47074317
 C            1.12595366        1.68202061        2.59447535
 C            3.01846944        0.15989583        2.54020618
 C            2.33876879        1.25623241        2.02973460
 C            3.13920950       -2.16199723        2.24280044
 C            3.41478710       -0.88034811        1.61062524
 C            2.62710436       -3.19625353        1.47589790
 C            0.62225411       -3.28804250        2.97630411
 C            1.43366255       -3.89043243        1.93361102
 C           -1.28040703       -1.74012403        2.63432053
 C           -0.68073044       -2.97731114        2.39682561
 C           -2.09283781       -1.16776214        1.65116179
 C           -1.55030439        1.02849043        2.41380722
 C           -2.44446079        0.17378378        1.78553071
 C            0.28473477        2.48846750        1.82553559
 C           -1.06348496        2.12954936        1.69746487
 C            0.87339298        3.29266287        0.86081467
 C            2.61330840        1.61760039        0.71862592
 C            2.13255365        2.84680930        0.29794591
 C            3.14846293       -0.69628747        0.25082565
 C            2.87088647        0.60048376       -0.21543522
 C            2.50964680       -3.01925625        0.04090852
 C            2.86118992       -1.80707328       -0.55265501
 C            0.57864692       -4.12159730        0.78322814
 C           -0.71443620       -3.53117839        1.05433743
 C            1.28928779       -3.68065408       -0.39789125
 C           -2.20679183       -1.77863172        0.39708095
 C           -1.32483531       -2.79840578        0.04687955
 C           -2.97865738       -1.17338047       -0.59630966
 C           -3.34872089        0.72453350        0.89607198
 C           -3.72974196       -0.04810507       -0.26963924
 C           -1.84082742        2.63440578        0.64391205
 C           -3.11028287        2.08261487        0.44848082
 C            0.06901803        3.83158783       -0.21594429
 C           -1.25892055        3.44269041       -0.34601740
 C            2.13704417        3.16198341       -1.10836920
 C            0.90374960        3.86753020       -1.40645690
 C            2.65647198        0.81767203       -1.58560360
 C            2.26994093        2.07312797       -2.04695109
 C            2.45517740       -1.60883856       -1.86665928
 C            2.39804553       -0.26798876       -2.40902846
 C            0.56800432       -3.09694378       -1.43265887
 C           -0.79372607       -2.82992807       -1.24510985
 C            1.28587842       -2.32861999       -2.34301767
 C           -2.69581625       -1.44520853       -1.93468016
 C           -1.51181728       -2.22072210       -2.26857009
 C           -2.81506679       -0.39287147       -2.93346175
 C           -4.10612911        0.89705347       -1.30869973
 C           -3.79336729        2.23228195       -0.82122666
 C           -3.53060248        0.75696312       -2.63336175
 C           -1.83209081        3.53183048       -1.61755502
 C           -3.13105031        2.95021499       -1.88247848
 C           -2.97764293        2.04512198       -3.01293100
 C            0.36935759        3.32979224       -2.64403036
 C            1.16511912        2.16278516       -2.99230855
 C           -1.00614068        3.26751418       -2.78384502
 C           -1.59112214        2.12078209       -3.45035117
 C            1.27103564       -0.19959964       -3.32863336
 C            0.58431859       -1.47870463       -3.28761126
 C           -0.79777818       -1.50461949       -3.31545733
 C           -1.52001646       -0.27540293       -3.58398697
 C            0.54379400        0.98685833       -3.41496368
 C           -0.84826107        0.94810281       -3.57381176
