   70
C70 / DATE: 7/ 1/2024 / Origin: Program Fullerene / C70 from database
 C            1.27126181       -0.05812910        4.41037619
 C            2.54667156       -0.37609217        3.81766421
 C            2.50394103       -1.76003021        3.37589988
 C            0.41394256       -1.22735628        4.29364461
 C            1.19638569       -2.30135691        3.70893533
 C           -0.81758192       -0.81790413        3.63386162
 C            0.54033777        1.07325837        3.88304038
 C           -0.80202163        0.62531045        3.54588352
 C            1.16442195        1.98393702        3.03027949
 C            3.00234849        0.43051407        2.70408776
 C            2.38337740        1.64561934        2.41119767
 C            2.95058230       -1.80586050        1.99069963
 C            3.32643634       -0.46173720        1.60052291
 C            2.25769832       -2.59785900        1.08696671
 C            0.58102948       -3.13761951        2.78967561
 C            1.29928356       -3.48124509        1.57775611
 C           -1.28464276       -1.55937602        2.55637141
 C           -0.78038533       -2.84209742        2.37046695
 C           -1.90662700       -0.91010392        1.48641304
 C           -1.45475807        1.25762148        2.49662129
 C           -2.02506228        0.49054567        1.47482282
 C            0.32765362        2.92591867        2.43591241
 C           -1.06326802        2.55987563        2.21599876
 C            0.77141173        3.68830498        1.28475659
 C            2.72326934        2.22498461        1.19038250
 C            1.94572267        3.32263210        0.64977111
 C            3.08197145       -0.02437261        0.30091859
 C            3.08775366        1.34832392        0.08702725
 C            2.19408034       -2.20487802       -0.25080312
 C            2.39280314       -0.86014720       -0.58845273
 C            1.59583511       -3.06455523       -1.16623871
 C            0.31463445       -4.02424439        0.66572650
 C           -0.97994740       -3.50636933        1.09563938
 C            0.60677766       -4.02091665       -0.68752042
 C           -2.35758100       -1.66277783        0.39529481
 C           -1.82367232       -2.93203497        0.15007264
 C           -3.15500027       -1.05909969       -0.57088243
 C           -2.59361209        1.13395887        0.36809811
 C           -3.29090870        0.38500347       -0.57427113
 C           -1.50448647        3.19096603        0.99199762
 C           -0.40519626        4.00451703        0.49147758
 C           -2.28752262        2.47220799        0.09587989
 C           -0.27792614        4.18601881       -0.87894447
 C            1.97523486        3.20461663       -0.80032009
 C            2.50638294        1.89068502       -1.12089412
 C            0.91752375        3.69557862       -1.55242624
 C            1.79778760       -0.32820714       -1.74720888
 C            1.78991926        1.05549579       -1.96728059
 C            1.13282350       -2.54310633       -2.43685881
 C            1.19572738       -1.17627129       -2.68281958
 C           -0.50722086       -3.99462934       -1.61296565
 C           -1.75353221       -3.40778423       -1.15915456
 C           -0.08375146       -3.25774185       -2.78567792
 C           -3.06257263       -1.50237405       -1.95302765
 C           -2.27484644       -2.60568257       -2.25150015
 C           -1.22334932       -2.49199376       -3.25633196
 C           -3.32445053        0.82549916       -1.95965868
 C           -2.98913060       -0.31814481       -2.79273220
 C           -2.43410110        2.96977021       -1.19803164
 C           -1.41794867        3.86506951       -1.72074822
 C           -2.81883396        2.07830119       -2.27714660
 C            0.48360849        2.94336173       -2.71655248
 C            0.89625210        1.62142705       -2.88122680
 C           -0.91103151        3.27249724       -2.94447734
 C           -1.81785135        2.20556616       -3.32907540
 C            0.32760769       -0.64069897       -3.63122128
 C           -0.97520283       -1.25792010       -3.83768759
 C           -1.97232365       -0.20734956       -3.73510841
 C            0.14832352        0.79403830       -3.70966871
 C           -1.27447512        1.05664224       -3.88722637
