   70
C70 / DATE: 7/ 1/2024 / Origin: Program Fullerene / C70 from database
 C            1.23938102        0.00611253        4.18586306
 C            2.46378355       -0.22816399        3.44085737
 C            2.45463156       -1.62972559        3.04260973
 C            0.40232940       -1.17500923        4.03546115
 C            1.08166834       -2.08510935        3.14079240
 C           -0.92744648       -0.73555183        3.67800024
 C            0.43332677        1.17059966        3.87234460
 C           -0.92033465        0.71725961        3.60485520
 C            0.97541992        2.17013246        3.08487739
 C            2.93038823        0.74207645        2.55123076
 C            2.27217267        1.96793233        2.44903950
 C            3.79889070        0.36391532        1.52975246
 C            3.20725895       -2.02353168        1.94974548
 C            4.08044768       -1.04604513        1.32927242
 C            2.55634242       -2.76771954        0.88258122
 C            0.42070259       -2.50990829        1.99177983
 C            1.16577000       -2.89914952        0.87114398
 C           -1.63942221       -1.43257859        2.70946266
 C           -0.96763782       -2.35666297        1.89463452
 C           -2.78960001       -0.81391831        2.23180672
 C           -1.69337065        1.33354010        2.61879274
 C           -2.81125232        0.63887185        2.17169199
 C            0.12077971        2.85597124        2.13326906
 C           -1.12104589        2.31337840        1.79735381
 C            2.23740423        2.64670562        1.16316766
 C            0.98281599        3.37599455        1.08752474
 C            3.66846118        0.98339842        0.21757200
 C            2.73070884        1.99214927        0.03632744
 C            4.09446182       -1.30219888       -0.09941994
 C            3.25203284       -2.45602956       -0.35466995
 C            3.79294824       -0.05659080       -0.78484558
 C            2.54022263       -2.49318650       -1.54238506
 C            0.51972208       -3.20885696       -0.32927184
 C            1.18799940       -3.02245118       -1.53754897
 C           -1.63027385       -2.93470770        0.81647682
 C           -0.86550340       -3.31783059       -0.35493365
 C           -3.46244107       -1.32553946        1.05350394
 C           -2.89689066       -2.38434400        0.36018088
 C           -3.45012256        1.02068863        0.93059532
 C           -3.99800211       -0.18640400        0.32625238
 C           -1.69063977        2.62423847        0.55332733
 C           -2.85986165        1.98734475        0.12558070
 C            0.43517465        3.63686919       -0.15412221
 C           -0.98889167        3.43650862       -0.33853201
 C            2.04089992        2.08773675       -1.17617719
 C            1.09066786        3.09704685       -1.33128275
 C            2.90050660       -0.07710290       -1.84918041
 C            2.52487130       -1.30938326       -2.38643890
 C            2.12988431        1.05529774       -2.12061191
 C            0.47688961       -2.41606315       -2.65414560
 C            1.34466096       -1.40008718       -3.22803158
 C           -1.58693110       -2.85207480       -1.53019693
 C           -2.88701806       -2.37464891       -1.09507197
 C           -0.89070735       -2.17921553       -2.53313794
 C           -4.13133964       -0.25111101       -1.05419098
 C           -3.49285648       -1.33542576       -1.78724836
 C           -3.25890837        2.08547661       -1.20812039
 C           -3.95246335        0.96703814       -1.82309455
 C           -1.20819302        3.28984002       -1.76541428
 C            0.08307283        2.99949662       -2.37367385
 C           -2.34381264        2.62347892       -2.19920005
 C            1.27659589        1.03837138       -3.22395682
 C            0.78402250       -0.23552156       -3.71905072
 C            0.18995050        1.99707770       -3.32452175
 C           -1.46796712       -1.06971829       -3.16241017
 C           -2.80610362       -0.75634078       -2.92843774
 C           -3.24172177        0.62515207       -3.04348083
 C           -2.24787319        1.65670372       -3.28357403
 C           -0.65986834       -0.13630846       -3.81382945
 C           -0.99876685        1.27781125       -3.75751917
