   70
C70 / DATE: 7/ 1/2024 / Origin: Program Fullerene / C70 from database
 C            1.30445529        0.06110791        4.71404683
 C            2.47635418       -0.07651477        3.87492935
 C            2.46239121       -1.41706024        3.31248648
 C            0.46209223       -1.10397037        4.49245379
 C            1.16340399       -1.99787711        3.58466458
 C           -0.85968717       -0.63328872        4.11324654
 C            0.47659955        1.23722654        4.55312491
 C           -0.89333767        0.79375925        4.33867976
 C            0.78312600        2.18001093        3.49138419
 C            2.67704037        0.85388958        2.77546590
 C            1.76256625        1.87785196        2.53939516
 C            2.89296188       -1.32053455        1.92852599
 C            3.15953214        0.08039506        1.65166732
 C            2.22809315       -2.07070093        0.95741509
 C            0.46031647       -2.54983015        2.52115007
 C            1.15242780       -2.86962902        1.35111519
 C           -1.43316996       -1.15021498        2.95813723
 C           -0.91575225       -2.33455338        2.44921455
 C           -2.20612587       -0.33376015        2.12191654
 C           -1.46487727        1.64178471        3.31208739
 C           -0.49707299        2.69049891        3.04253683
 C           -2.13565450        1.06422627        2.23639631
 C           -0.55157980        3.32720131        1.81695362
 C            1.64136964        2.39828605        1.24627164
 C            0.64273324        3.33019169        0.99201124
 C            2.91610941        0.53543177        0.36829224
 C            2.26822592        1.75797437        0.16985784
 C            2.32425012       -1.65946337       -0.37770308
 C            2.87990838       -0.40656648       -0.64835016
 C            1.59416931       -2.32758733       -1.36885621
 C            0.50223543       -3.63991370        0.39672267
 C            0.75448324       -3.37961695       -1.00923815
 C           -1.64361726       -3.00631653        1.48238222
 C           -0.92405133       -3.85697541        0.55432684
 C           -2.83646424       -0.90980687        1.01017874
 C           -2.63783123       -2.26162132        0.72984001
 C           -3.34332597       -0.09327574        0.00411038
 C           -2.39874130        1.86400280        1.12355156
 C           -1.66243686        3.02897712        0.93054467
 C           -3.10058156        1.33476592        0.05198495
 C            0.21123352        3.55330346       -0.37164582
 C           -1.23551002        3.38439205       -0.41092120
 C            2.02727862        2.17894018       -1.14751007
 C            0.96218343        3.05220628       -1.42400035
 C            2.94382074        0.05524189       -1.95032929
 C            2.62644935        1.45190171       -2.18198557
 C            1.48828153       -1.77641159       -2.64937288
 C            2.31785473       -0.71843617       -3.00183522
 C            0.34696523       -2.02382074       -3.41231873
 C           -0.49488224       -3.57245955       -1.72968673
 C           -1.54775951       -3.72812093       -0.74829015
 C           -2.56957369       -2.70083220       -0.65741210
 C           -0.74685577       -2.78099597       -2.83666519
 C           -3.23968186       -0.52015176       -1.38389013
 C           -2.67712733       -1.75801509       -1.67660399
 C           -1.91842929       -1.91065704       -2.83845662
 C           -2.80329124        1.79152149       -1.29972913
 C           -1.80963664        2.74819649       -1.50987925
 C           -2.90051057        0.64331215       -2.18893938
 C            0.32981951        3.01572569       -2.66443057
 C           -1.09502292        2.73330889       -2.70582277
 C            2.13638352        1.56178089       -3.54271039
 C            1.89139784        0.21424795       -4.03379487
 C            0.95039548        2.34582830       -3.78643367
 C           -0.25203105       -0.94639096       -4.18083259
 C           -1.59687104       -0.74732769       -3.65510080
 C           -2.00906143        0.52099619       -3.24851437
 C           -1.28965284        1.64283454       -3.64773988
 C            0.52343336        0.15284053       -4.51809098
 C           -0.05013739        1.47853697       -4.38997835
