   70
C70 / DATE: 7/ 1/2024 / Origin: Program Fullerene / C70 from database
 C            1.58742856        0.10857142        4.82523100
 C            0.81626198       -1.11799842        4.75442344
 C            1.64675032       -2.10833370        4.10819715
 C            2.72651761       -0.03783895        3.93279012
 C            2.78875788       -1.42118570        3.52262910
 C            2.61381187        0.97935123        2.90722353
 C            0.75884391        1.17894300        4.30318924
 C            1.50855012        1.84920246        3.26050854
 C           -0.47376614       -0.80820621        4.15838211
 C           -0.53373906        0.62828739        3.94504306
 C           -0.99650193       -1.64673436        3.17691186
 C            1.04816183       -2.90897104        3.06386548
 C           -0.32068000       -2.83322408        2.84155691
 C            2.79874793       -1.72526244        2.10261198
 C            1.91647989       -2.85557027        1.90124721
 C            2.76790932        0.64313045        1.56320934
 C            2.77599535       -0.69996613        1.16457705
 C            2.38813108        1.59763119        0.62283424
 C            0.79507210        2.41527695        2.21395267
 C            1.44718182        2.56379753        0.99435044
 C           -1.13634184        1.11390824        2.78819648
 C           -0.58848561        2.24956029        2.19043604
 C           -1.93767801       -1.11268310        2.29022742
 C           -1.92240277        0.25740430        2.01056393
 C           -2.64431216       -1.97257027        1.45900789
 C           -0.78496387       -3.57389545        1.76456860
 C           -2.10926718       -3.29974562        1.25368314
 C            1.32830297       -3.04495315        0.65159341
 C            0.10883230       -3.71694678        0.62257792
 C            2.39763470       -1.01170178       -0.13920127
 C            1.62527457       -2.15675389       -0.38849974
 C            2.55789823        1.30651891       -0.72704128
 C            2.51943554       -0.03192810       -1.12198624
 C            2.30904956        2.31986601       -1.64723637
 C            0.82242641        3.31839437        0.00425769
 C            1.42924349        3.40072620       -1.24483786
 C           -1.29260963        2.84864324        1.15692542
 C           -0.54952881        3.54492276        0.11824271
 C           -2.48034113        0.73650299        0.81845619
 C           -2.33602556        2.08146714        0.49977076
 C           -3.12261613       -1.48725281        0.17528916
 C           -2.89613581       -0.15708029       -0.16977478
 C           -2.08675826       -3.55397589       -0.17273422
 C           -0.69817703       -3.68413094       -0.58168899
 C           -2.89328842       -2.53383619       -0.81084321
 C            0.97036184       -2.29398160       -1.61816314
 C           -0.26254643       -2.95237104       -1.68118128
 C            2.23906306       -0.37035388       -2.44092663
 C            1.39288051       -1.52027224       -2.69717240
 C            2.01761833        1.99551368       -3.03212729
 C            1.90206854        0.66332176       -3.40378798
 C            0.64216326        3.79290749       -2.40101527
 C            1.05888198        2.96993524       -3.52488172
 C           -1.38866862        3.54748719       -1.06870478
 C           -2.37694257        2.49138864       -0.89303719
 C           -0.80541701        3.73979959       -2.31323608
 C           -2.83131025        0.20798483       -1.52175193
 C           -2.54515518        1.52796542       -1.88307343
 C           -2.54831515       -2.15843303       -2.09683041
 C           -1.22726581       -2.51920284       -2.59064340
 C           -2.76685630       -0.78589809       -2.49676558
 C            0.44562637       -1.15220188       -3.73824480
 C            0.74307067        0.20721365       -4.16130973
 C           -0.87537755       -1.55951976       -3.62257781
 C           -1.94370552       -0.56980718       -3.67041357
 C           -0.13571206        2.50546029       -4.20220693
 C           -1.28863502        2.96344532       -3.43981122
 C           -2.13697673        1.81108828       -3.18809144
 C           -0.30317820        1.08250181       -4.44135003
 C           -1.65475216        0.73466781       -4.03538326
