   70
C70 / DATE: 7/ 1/2024 / Origin: Program Fullerene / C70 from database
 C            1.13987710       -0.10187980        4.90387475
 C            2.35661792       -0.37174014        4.16253215
 C            2.18585226       -1.64771236        3.47930071
 C            0.28614280       -1.26911161        4.76864511
 C            0.82462656       -2.08309595        3.69007337
 C           -1.07805247       -0.79801136        4.65976569
 C            0.34381661        1.06658165        4.56327317
 C           -1.04519113        0.64856532        4.50306941
 C            0.81106355        1.96622870        3.61312679
 C            2.81480995        0.59255037        3.17872234
 C            2.12290223        1.78156296        3.00295658
 C            2.65368159       -1.48460778        2.12198058
 C            3.22264359       -0.15608151        2.00728858
 C            1.88461228       -1.95581152        1.06112737
 C            0.01930044       -2.36817690        2.58635284
 C            0.57699682       -2.40402176        1.29216937
 C           -1.89188303       -1.32072912        3.58531987
 C           -1.36963235       -2.29643247        2.74152276
 C           -1.84027645        0.98434314        3.32732333
 C           -2.58286298       -0.20220842        2.96842941
 C           -0.09145916        2.43511337        2.57268288
 C           -1.27535200        1.74880071        2.31635453
 C            2.07127391        2.37100572        1.67626597
 C            0.72812798        2.87106145        1.46392016
 C            3.18340418        0.43793348        0.75406199
 C            2.70729104        1.74726695        0.60404367
 C            2.23621401       -1.52749793       -0.21939889
 C            3.08115429       -0.41596304       -0.33481003
 C            1.46413919       -1.93229917       -1.31041489
 C           -0.23803875       -2.72671764        0.20114975
 C            0.15450744       -2.36334179       -1.09713354
 C           -2.17382788       -2.65766210        1.67414090
 C           -1.54822363       -3.11224201        0.45228457
 C           -3.00520836       -0.37663730        1.65749540
 C           -3.18358461       -1.69755364        1.26846795
 C           -1.68360035        1.55046986        0.99313162
 C           -2.62901562        0.56343303        0.68250948
 C            0.22245434        2.79790514        0.18023057
 C           -1.04348106        2.24619280       -0.03492658
 C            2.37102763        2.17768333       -0.68698812
 C            1.13286347        2.80770579       -0.86857509
 C            3.32790436        0.12981782       -1.58131479
 C            2.96858568        1.52123793       -1.76297478
 C            1.87784924       -1.60284911       -2.59777859
 C            2.91169234       -0.60181930       -2.75555208
 C            0.87875031       -1.36639087       -3.62211529
 C           -0.78047047       -2.29750235       -2.14770067
 C           -0.45538418       -1.61503000       -3.32336546
 C           -2.54667435       -2.95958443       -0.58221002
 C           -3.51697432       -1.98451848       -0.09968514
 C           -2.13018056       -2.51427851       -1.89140589
 C           -2.97482276        0.34205599       -0.66082846
 C           -3.51276949       -0.89157523       -1.04182330
 C           -3.07282780       -1.48507675       -2.28482270
 C           -1.52049305        2.15702545       -1.34312346
 C           -2.47423944        1.18020805       -1.66592834
 C            0.62931955        3.02052848       -2.14311481
 C           -0.79178120        2.80553325       -2.34653571
 C            2.43009788        1.67156142       -3.10371985
 C            2.46284741        0.36440839       -3.74130880
 C            1.25248075       -0.15642116       -4.34885745
 C            1.32965288        2.49212435       -3.30061025
 C           -0.97771486        2.45748744       -3.73891286
 C            0.26624969        0.73663133       -4.74893568
 C            0.32646019        2.11409182       -4.28443241
 C           -1.45596891       -0.90633069       -3.99236344
 C           -2.69889719       -0.63120537       -3.29866001
 C           -2.66082822        0.78521442       -2.99718465
 C           -1.11981746        0.32023131       -4.69155262
 C           -1.88775734        1.38955632       -4.06452898
