   70
C70 / DATE: 7/ 1/2024 / Origin: Program Fullerene / C70 from database
 C            1.50808142        0.07369174        4.68107206
 C            0.73881505       -1.14277604        4.50101143
 C            1.43928902       -1.98105135        3.54249778
 C            2.65540352        0.00395952        3.79307341
 C            2.70791481       -1.33278793        3.24008954
 C            2.58599759        1.12464074        2.87202445
 C            0.67843798        1.18162444        4.24458152
 C            1.39474214        1.88731988        3.20595912
 C           -0.62893103       -0.76071574        4.20933472
 C           -0.63881161        0.66777537        3.92701575
 C           -1.37212420       -1.59395292        3.39386258
 C            0.70683489       -2.58659958        2.51711861
 C           -0.68295711       -2.61502449        2.61263962
 C            1.31827044       -2.83809290        1.28481932
 C            3.23905643       -1.48599824        1.97282642
 C            2.65305472       -2.47871816        1.10198679
 C            2.89549199        0.91480685        1.52281726
 C            3.46187710       -0.30191623        1.14900046
 C            2.28144383        1.72084847        0.55394841
 C            0.67480902        2.42631095        2.15784043
 C            1.36838790        2.68064490        0.98937069
 C           -1.27317369        1.13570320        2.77362847
 C           -0.70247945        2.19644808        2.06522784
 C           -2.35904470       -0.99982207        2.51813225
 C           -2.23085328        0.33931986        2.14605281
 C           -1.47944167       -2.85763555        1.42191038
 C           -2.64517729       -1.99280882        1.50273148
 C            0.54881022       -3.18272563        0.16629792
 C           -0.84415484       -3.03214111        0.19695288
 C            1.19761840       -3.39647341       -1.04889441
 C            3.12280802       -2.15981970       -0.22970486
 C            3.39167540       -0.73029098       -0.23682499
 C            2.45223269       -2.71012670       -1.30441173
 C            2.28320037        1.33845671       -0.79781463
 C            2.74931532        0.07216947       -1.17367321
 C            1.67732808        2.16769333       -1.75000566
 C            0.75534482        3.50827179        0.07112651
 C            1.05254327        3.33873575       -1.33328372
 C           -1.37629619        2.72751342        0.96199377
 C           -0.68033161        3.65972131        0.18724478
 C           -2.79437531        0.76483414        0.94183622
 C           -2.44035186        2.00493127        0.40177630
 C           -3.24715123       -1.57331280        0.33270522
 C           -3.48966821       -0.15448748        0.15321573
 C           -1.56798090       -2.80662232       -0.98333843
 C           -2.75629036       -2.08352342       -0.93500491
 C            0.43379623       -3.35755537       -2.27859187
 C           -0.94617590       -2.93364862       -2.21917532
 C            2.24586183       -1.89129533       -2.48246234
 C            2.32775879       -0.50345967       -2.37605854
 C            1.13001855       -2.47592471       -3.20238788
 C            1.39040697        1.66874175       -3.01780091
 C            1.66534198        0.27702723       -3.31597935
 C            0.12523965        2.00223593       -3.65837929
 C           -0.09748924        3.84217471       -2.07004515
 C           -1.17371862        4.05895536       -1.11331386
 C           -0.62734371        3.05985215       -3.17059312
 C           -2.98404752        2.37822111       -0.83216869
 C           -2.36304957        3.42261083       -1.62302024
 C           -2.04464692        2.85467743       -2.92515060
 C           -3.61507184        0.07176571       -1.27470577
 C           -2.99602205       -1.06137084       -1.94327593
 C           -3.39372979        1.34415021       -1.76399076
 C           -2.58068510        1.50214529       -2.95584732
 C           -1.14133624       -1.88639168       -3.21251527
 C            0.15230155       -1.58905494       -3.80441527
 C            0.50174601       -0.26539666       -4.00889725
 C           -0.53562588        0.74505247       -3.96336216
 C           -2.03718695       -0.85199771       -2.93477440
 C           -1.76553213        0.45048772       -3.37385509
