   70
C70 / DATE: 7/ 1/2024 / Origin: Program Fullerene / C70 from database
 C            1.15208717       -0.04971808        4.60399298
 C            2.48760253       -0.26607719        4.08280327
 C            2.52884827       -1.60759455        3.53170076
 C            0.35437909       -1.22447209        4.28279413
 C            1.16844939       -2.11787650        3.49483595
 C           -0.89266113       -0.77272525        3.72241461
 C            0.41113101        1.12308832        4.17281167
 C           -0.90287279        0.68134530        3.74373700
 C            1.05575701        2.11148158        3.44664160
 C            3.00300347        0.64049296        3.07235347
 C            2.37238528        1.85644198        2.86473573
 C            3.26853865       -1.55230799        2.28573033
 C            3.39155152       -0.15063097        1.91561551
 C            2.91929916       -2.45251621        1.29833701
 C            0.68197037       -2.61318920        2.28514746
 C            1.62378387       -3.11252929        1.39450568
 C           -1.41478295       -1.41156932        2.60600620
 C           -0.57377115       -2.19942675        1.79892135
 C           -2.51968075       -0.80112740        2.03740070
 C           -1.57554552        1.34681463        2.71744016
 C           -2.60847557        0.65156157        2.10177793
 C            0.29465274        2.86589338        2.46798271
 C           -0.93708763        2.38137322        2.01868632
 C            2.35339479        2.40573071        1.52420527
 C            1.25719801        3.35255656        1.49795596
 C            3.01573064        0.26194555        0.63001436
 C            2.54620187        1.56205155        0.42765117
 C            3.04575454       -2.03549086       -0.07939345
 C            2.90189373       -0.68469404       -0.39203107
 C            1.22438902       -3.45399588        0.04902324
 C            2.29470657       -3.01075050       -0.83469932
 C           -0.94506423       -2.49557252        0.46816873
 C           -0.09401526       -3.25957512       -0.34412485
 C           -2.97294634       -1.21044666        0.73216408
 C           -2.14671472       -1.99528715       -0.06107254
 C           -3.13154776        1.11229334        0.83454701
 C           -3.63601997       -0.06065921        0.14523821
 C           -1.39786589        2.78157253        0.75389748
 C           -2.43171381        2.07682055        0.11902073
 C            0.78916997        3.76123982        0.26802434
 C           -0.63883314        3.70379710        0.03382386
 C            1.99252708        1.92246707       -0.80375308
 C            1.39685980        3.17859155       -0.91178760
 C            2.31692908       -0.32969404       -1.61255685
 C            1.74041952        0.93484473       -1.76641563
 C            1.97361026       -2.71146436       -2.14293037
 C            2.07018824       -1.32090038       -2.56529172
 C           -0.37351013       -3.39962587       -1.70085473
 C            0.71647862       -3.22319752       -2.64618179
 C           -2.39531660       -2.04435611       -1.43642781
 C           -1.54464051       -2.76358891       -2.26694919
 C           -3.77130018       -0.01207955       -1.22695488
 C           -3.28083335       -1.13103222       -2.01146433
 C           -2.63113940        2.17383843       -1.26752525
 C           -3.39014673        1.20434177       -1.92405234
 C           -0.79989161        3.79852815       -1.39955360
 C            0.48438752        3.44883456       -1.99780738
 C           -1.80605805        2.98578685       -2.04123238
 C            0.87374937        1.18213739       -2.84738474
 C            0.23633614        2.41192270       -2.97110504
 C           -1.18855307        2.43087138       -3.23443531
 C            1.05139718       -1.10066557       -3.57505940
 C            0.26596889       -2.31783071       -3.68065859
 C           -1.17338880       -2.21376843       -3.56850324
 C            0.38767769        0.11774549       -3.60777380
 C           -3.00007674       -0.62693230       -3.34243271
 C           -3.01985114        0.82521795       -3.27833560
 C           -1.76431350        1.31515319       -3.82025181
 C           -1.76407571       -1.03018336       -3.98124450
 C           -0.92571394        0.15677021       -4.08986209
