   70
C70 / DATE: 7/ 1/2024 / Origin: Program Fullerene / C70 from database
 C            1.59782482       -0.22853479        5.22268111
 C            0.74131568       -1.40201264        5.20857862
 C            1.28859424       -2.34182905        4.24684521
 C            2.67441687       -0.45260072        4.27424408
 C            2.55243612       -1.80848634        3.77077711
 C            2.67262464        0.64698065        3.31864952
 C            0.81883250        0.89662062        4.73752901
 C            1.54525317        1.50417855        3.64246421
 C           -0.56074960       -0.99257400        4.71840729
 C           -0.53017632        0.43994997        4.47725366
 C            0.25073170       -2.65164996        3.27058303
 C           -0.91661508       -1.85750890        3.60528910
 C            0.60999503       -2.78844202        1.92932724
 C            2.88802427       -2.03602115        2.44848330
 C            1.96283340       -2.78554334        1.61475901
 C            2.94474399        0.37441570        1.97475438
 C            3.33648071       -0.91519870        1.63649136
 C            2.39003835        1.19977560        0.98393787
 C            0.82297485        2.03548138        2.58799531
 C            1.47800373        2.18355487        1.37684685
 C           -1.17079457        0.90683515        3.33558425
 C           -0.57155138        1.91797111        2.57748583
 C           -1.64500620       -1.30010785        2.56669073
 C           -2.02927886        0.03347397        2.68272954
 C           -0.31932870       -2.46658863        0.92836562
 C           -1.51681693       -1.84303880        1.28849917
 C            0.05829856       -2.51398519       -0.42540116
 C            2.35711989       -2.52386092        0.25404527
 C            3.21104086       -1.34480862        0.26514608
 C            1.41735284       -2.61515819       -0.75878752
 C            2.50753904        0.85433370       -0.37808962
 C            3.01012615       -0.40472783       -0.73401993
 C            1.91400969        1.67127402       -1.35808122
 C            0.86950732        2.97744678        0.42628411
 C            1.22524795        2.81405338       -0.96401594
 C           -1.27397532        2.42429380        1.47441665
 C           -0.57259494        3.13596854        0.50089097
 C           -2.84797946        0.55719340        1.70194751
 C           -2.50362274        1.85390642        1.14277146
 C           -2.37806380       -1.38433247        0.29709700
 C           -3.19940377       -0.29607775        0.58849550
 C           -0.87755571       -2.17122927       -1.41926267
 C           -2.14879615       -1.72012584       -1.03519519
 C           -0.46823389       -2.08540526       -2.76287528
 C            1.83652884       -2.12208195       -1.98220236
 C            2.67089367       -0.93053562       -1.97136860
 C            0.88352280       -1.97756768       -3.05023938
 C            1.78970598        1.22930865       -2.68276916
 C            2.19094643       -0.05694845       -3.01485704
 C            1.34602342       -0.87301882       -3.87242208
 C            0.95628991        1.91713936       -3.56768930
 C            0.08521156        3.26679568       -1.73909049
 C           -1.07316970        3.19602668       -0.86506126
 C           -0.03931769        2.83502659       -3.04505087
 C           -2.96735317        1.86142374       -0.24055912
 C           -3.62040350        0.58432920       -0.48071163
 C           -2.16946083        2.42069901       -1.23585284
 C           -3.03683121       -1.22341353       -1.98878849
 C           -3.63803434        0.07961518       -1.76517470
 C           -1.36409255       -1.70093078       -3.75703894
 C           -2.69856136       -1.29271672       -3.39256458
 C            0.44056473       -0.25119607       -4.71731229
 C            0.33241790        1.19667086       -4.66995596
 C           -0.90529896       -0.79526327       -4.80235242
 C           -1.33223438        2.35723093       -3.49918667
 C           -2.28342600        1.96359360       -2.55425357
 C           -3.17613175        0.92734080       -2.84390718
 C           -2.92499802        0.03071689       -3.95869345
 C           -1.08128527        1.54062876       -4.67623287
 C           -1.83632946        0.31926757       -4.86728321
