   70
C70 / DATE: 7/ 1/2024 / Origin: Program Fullerene / C70 from database
 C            1.29586558       -0.15828926        4.53330034
 C            2.57182025       -0.33150169        3.86551059
 C            2.54385371       -1.62029535        3.20064081
 C            0.44269451       -1.28119755        4.16567484
 C            1.18516777       -2.12317046        3.25787628
 C           -0.82700596       -0.74695947        3.72597775
 C            0.53818528        1.05800929        4.30364866
 C           -0.84057372        0.66111383        4.07863091
 C            1.08950404        2.08100692        3.53710319
 C            3.00282267        0.65669935        2.89199276
 C            2.32710848        1.86380167        2.79506391
 C            3.14743202       -1.46036956        1.89035483
 C            3.38080830       -0.04350793        1.67369038
 C            2.62468906       -2.18994090        0.83522111
 C            0.60174535       -2.52538460        2.06376564
 C            1.45625338       -2.92684080        1.04663123
 C           -1.35344151       -1.14121123        2.49546167
 C           -0.69127514       -2.10118134        1.72035826
 C           -2.35791277       -0.36233172        1.91957577
 C           -1.68548684        1.50100181        3.37347634
 C           -2.62561281        0.90302343        2.44715141
 C            0.21985585        2.91396443        2.71962657
 C           -1.14626223        2.68423782        2.71292916
 C            2.17794914        2.48361087        1.49298772
 C            0.89836189        3.17438088        1.46269653
 C            3.06960533        0.50431612        0.42497953
 C            2.61024967        1.82536188        0.34439271
 C            2.89389249       -1.74099371       -0.45048042
 C            2.93635086       -0.35658846       -0.67750209
 C            2.64098329       -2.62216899       -1.49286343
 C            0.90073937       -3.60848215       -0.02324803
 C            1.64332647       -3.65038650       -1.26946887
 C           -1.19792588       -2.43259275        0.45620393
 C           -0.49188248       -3.34033852       -0.33885749
 C           -2.85357342       -0.68168830        0.65477221
 C           -2.17630203       -1.62194713       -0.13293436
 C           -3.76444306        0.19856746        0.06991432
 C           -3.02512354        1.96600005        1.54997784
 C           -1.88363882        2.85874631        1.47221193
 C           -3.65399563        1.61241429        0.37576166
 C            0.18493365        3.20843656        0.26448953
 C           -1.19648054        2.97733175        0.26065909
 C            2.16311057        2.31999649       -0.87306126
 C            0.90760249        3.05566388       -0.91113415
 C            2.64206203        0.16969974       -1.94452724
 C            2.22918056        1.48839148       -2.05485611
 C            2.45011816       -2.10896276       -2.82854683
 C            2.35721809       -0.67682347       -3.00878627
 C            0.68711153       -3.58532651       -2.35690601
 C           -0.60591002       -3.25662863       -1.78487287
 C            1.23770564       -2.70869621       -3.36602085
 C           -2.33908903       -1.63816777       -1.52825530
 C           -1.35876161       -2.22364868       -2.32811353
 C           -4.03528173        0.11624029       -1.34864129
 C           -3.29588302       -0.83815590       -2.13931000
 C           -3.19682331        2.23231976       -0.84872463
 C           -1.86317740        2.64528067       -0.92969056
 C           -3.77969568        1.43806320       -1.90943592
 C            0.22333300        2.71155647       -2.13891624
 C            1.08008545        1.80478888       -2.89166950
 C           -1.14694280        2.49876360       -2.12892125
 C            1.18312249       -0.40854323       -3.82579530
 C            0.40611429       -1.63508598       -3.86292731
 C           -0.93092613       -1.56891240       -3.49603017
 C            0.50648137        0.80475748       -3.67879329
 C           -2.92860879       -0.16977660       -3.36742092
 C           -3.03212322        1.25955069       -3.12943969
 C           -1.69335963        1.80620101       -3.20794264
 C           -1.60762072       -0.42758941       -3.90186119
 C           -0.87230461        0.83038756       -3.90675442
