   70
C70 / DATE: 7/ 1/2024 / Origin: Program Fullerene / C70 from database
 C            1.30603214       -0.14134711        4.33462823
 C            2.57111307       -0.52643832        3.75253470
 C            2.53989060       -1.95931540        3.52192767
 C            0.44620949       -1.31429295        4.36286363
 C            1.20286929       -2.43679460        3.84417893
 C           -0.81074753       -0.95502498        3.72752590
 C            0.55957328        0.93046580        3.70768655
 C           -0.80613566        0.48597752        3.54071086
 C            1.12499351        1.66511662        2.67536152
 C            2.98349292        0.11091868        2.51783336
 C            2.29237736        1.21477987        2.03916131
 C            3.08611188       -2.20945663        2.19603009
 C            3.35031926       -0.92284498        1.56815301
 C            2.54994371       -3.23416453        1.43204179
 C            0.57799449       -3.32245257        2.97731840
 C            1.35574182       -3.91708443        1.90380431
 C           -1.33300006       -1.76196783        2.71767556
 C           -0.73852740       -2.99733395        2.43995166
 C           -2.18096052       -1.18386328        1.76671933
 C           -1.54394138        1.01617627        2.49014088
 C           -2.45449661        0.18578170        1.85067040
 C            0.28214149        2.51396537        1.96368621
 C           -1.06597242        2.14506904        1.81082013
 C            0.88170359        3.34081222        1.02551661
 C            2.50196707        1.57319114        0.71214560
 C            2.01921773        2.80705056        0.30433943
 C            3.04998398       -0.73098653        0.21633237
 C            2.70981966        0.55886778       -0.23007738
 C            2.41052931       -3.04652482        0.00060506
 C            2.79294087       -1.84477041       -0.59207514
 C            0.47157364       -4.11347958        0.76784589
 C           -0.80507709       -3.52224562        1.08530255
 C            1.15327015       -3.64868072       -0.41609993
 C           -2.40241311       -1.85818266        0.56190912
 C           -1.45061123       -2.76276607        0.12285212
 C           -3.27132978       -1.32777885       -0.37542418
 C           -3.34905619        0.76070434        0.96200685
 C           -3.91173573       -0.06297475       -0.08731084
 C           -1.85215792        2.70343409        0.78741472
 C           -3.01880671        2.05364049        0.38878136
 C            0.05843523        4.06956942        0.09142757
 C           -1.31592530        3.65787547       -0.07276607
 C            1.80719705        3.06255201       -1.10349030
 C            0.70534031        4.00355836       -1.20744688
 C            2.40293864        0.77766464       -1.58073502
 C            1.87969067        2.00577816       -2.00176725
 C            2.38731425       -1.64508969       -1.90433925
 C            2.36935031       -0.30529077       -2.44953166
 C            0.42646795       -3.00548490       -1.41178105
 C           -0.89020590       -2.59144368       -1.15340153
 C            1.17092384       -2.30847724       -2.35033434
 C           -2.84263800       -1.31091973       -1.76221687
 C           -1.55831454       -1.76702375       -2.07536910
 C           -3.93711521        0.71587300       -1.31111681
 C           -3.35934764        2.01713151       -1.02703139
 C           -3.35416645       -0.09004568       -2.36600572
 C           -1.57928317        3.55057642       -1.50078173
 C           -0.31882680        3.76427322       -2.20456097
 C           -2.48799857        2.59052913       -1.95033419
 C            1.16501003        2.09044230       -3.20158403
 C           -0.00215458        2.95993102       -3.28742622
 C            1.40777052       -0.31560926       -3.53504326
 C            0.50436173       -1.42782366       -3.28161925
 C           -0.85738254       -1.18524428       -3.14060183
 C            0.87823936        0.88789501       -3.96610964
 C           -2.59986937        0.54498838       -3.33569082
 C           -2.28646913        1.96055987       -3.18183609
 C           -1.06506865        2.21187582       -3.92545443
 C           -1.40884657       -0.11148279       -3.83870196
 C           -0.52426846        0.92768177       -4.33983855
