   70
C70 / DATE: 7/ 1/2024 / Origin: Program Fullerene / C70 from database
 C            1.54900353        0.08453809        4.46716733
 C            0.75654316       -1.12140697        4.32080242
 C            1.36965758       -1.94891417        3.29532000
 C            2.64896771        0.00602276        3.52396495
 C            2.58903051       -1.28394090        2.86790831
 C            2.61256467        1.19007616        2.68766383
 C            0.71304448        1.20462960        4.07387144
 C            1.39163852        1.90735957        3.00907440
 C           -0.62146477       -0.71738089        4.13853996
 C           -0.62050151        0.70213235        3.81579544
 C           -1.44030992       -1.54843574        3.39816254
 C            0.55047588       -2.55022516        2.33583051
 C           -0.82882381       -2.56858482        2.55169482
 C            1.05280110       -2.76490254        1.04430647
 C            2.92679888       -1.34460533        1.52747093
 C            2.35787553       -2.34870448        0.75480063
 C            2.96278993        1.05719485        1.34374935
 C            3.39395314       -0.19119476        0.89264859
 C            2.43681195        1.96733762        0.41711590
 C            0.64750568        2.39941234        1.95245091
 C            1.33419745        2.74628530        0.80110811
 C           -1.29852389        1.13988622        2.67574968
 C           -0.72164308        2.11509745        1.85609327
 C           -2.49502094       -0.94533578        2.61267298
 C           -2.35896121        0.37695861        2.18631626
 C           -1.72606785       -2.78292659        1.42921122
 C           -2.89836773       -1.95291315        1.65537181
 C            0.17523951       -3.10235707        0.00160185
 C           -1.19127069       -2.87496879        0.15048459
 C            0.66465003       -3.27890132       -1.28811490
 C            2.91905633       -2.60978151       -0.48811702
 C            2.08389626       -3.14920007       -1.53782477
 C            3.85600390       -0.29923147       -0.41119767
 C            3.76222171       -1.58823612       -1.08054737
 C            2.79950407        1.85904568       -0.93614750
 C            3.47921024        0.72333055       -1.36905208
 C            2.08498282        2.56435896       -1.90067755
 C            0.66497315        3.53211417       -0.12008961
 C            1.13266048        3.56660288       -1.48423076
 C           -1.42301706        2.57114412        0.73538588
 C           -0.78540349        3.46122629       -0.13742885
 C           -3.03601896        0.78339295        1.03394179
 C           -2.58399239        1.90585169        0.32337684
 C           -3.64289632       -1.54272824        0.56755213
 C           -3.91553996       -0.12593393        0.43644485
 C           -1.93843825       -2.43500166       -0.94783019
 C           -3.24504622       -1.99302249       -0.75281965
 C           -0.03237055       -2.62654769       -2.38018228
 C           -1.27694078       -2.07819213       -2.12355312
 C            2.25021883       -2.31280719       -2.71761841
 C            3.29585733       -1.35817934       -2.43825081
 C            2.98994666        0.04954606       -2.56086466
 C            0.93859594       -1.81703752       -3.09023413
 C            1.49731279        1.82047973       -3.00635783
 C            1.77401283        0.46393451       -3.10105765
 C            0.70740368       -0.44364778       -3.20915925
 C           -0.02513482        3.47045132       -2.35364674
 C           -1.21374366        3.56198703       -1.52454678
 C            0.14230668        2.29431370       -3.19076481
 C           -3.16070852        2.24473606       -0.90395837
 C           -2.33288603        2.85441150       -1.92251388
 C           -4.35161201        0.06449181       -0.93019221
 C           -3.81606141       -1.04899976       -1.70139169
 C           -3.98625437        1.28404197       -1.60660882
 C           -1.62497546       -0.89154878       -2.76358274
 C           -0.61680835        0.01295345       -3.13107384
 C           -0.90022231        1.38046618       -3.25898053
 C           -2.17831280        1.85358549       -2.96831876
 C           -2.95526029       -0.49028894       -2.72736643
 C           -3.26911355        0.91668602       -2.81934830
