   70
C70 / DATE: 7/ 1/2024 / Origin: Program Fullerene / C70 from database
 C            1.24093974        0.00881345        4.17375206
 C            2.58370700       -0.34631587        3.78190560
 C            2.57611071       -1.75253088        3.40655071
 C            0.41865147       -1.18527211        4.05735599
 C            1.18682347       -2.17252652        3.33439144
 C           -0.85513803       -0.77720598        3.51000213
 C            0.56144999        1.06449317        3.45047882
 C           -0.82201971        0.66008583        3.33050136
 C            1.16515852        1.66800941        2.35281026
 C            3.20363388        0.37999901        2.69407675
 C            2.48592654        1.34954535        1.98995906
 C            3.41651691       -1.89456249        2.23007211
 C            3.98766969       -0.58535362        1.94914687
 C            2.96401630       -2.68036721        1.17790334
 C            0.68586033       -2.66804315        2.13261617
 C            1.57841088       -3.12993324        1.16552925
 C           -1.43703794       -1.52823427        2.49830942
 C           -0.65269351       -2.44427885        1.77841429
 C           -2.55193976       -0.97333156        1.87314771
 C           -1.58592157        1.18137993        2.29581443
 C           -2.66071028        0.42193889        1.84462964
 C            0.35241100        2.37223094        1.46437075
 C           -1.02535784        2.12438232        1.42696762
 C            0.94588021        3.09432087        0.44458238
 C            2.99185308        1.78307000        0.76014655
 C            2.28568174        2.73006937        0.02169914
 C            4.35767797       -0.26388738        0.65186889
 C            4.00088384        1.04624387        0.13544038
 C            3.33257975       -2.33451249       -0.18627576
 C            4.13066429       -1.22280545       -0.42080445
 C            1.15082931       -3.20346580       -0.21939874
 C            2.17561228       -2.57709559       -1.03700977
 C           -1.09703897       -2.87442936        0.52395109
 C           -0.17790545       -2.96066615       -0.52124987
 C           -3.21409315       -1.74224234        0.92486281
 C           -2.44551538       -2.74095145        0.20888108
 C           -4.13477259       -1.11715012       -0.00958249
 C           -3.57634847        1.04022895        1.00594793
 C           -4.36720035        0.24749134        0.07987463
 C           -1.80769100        2.61743156        0.37097951
 C           -3.15718858        2.24978781        0.32058128
 C            0.17665091        3.41198354       -0.74055339
 C           -1.19534455        3.19256338       -0.75429542
 C            2.28843769        2.65871994       -1.43480907
 C            0.94466090        2.95639951       -1.88696117
 C            4.01024009        0.94265393       -1.31134862
 C            3.93238716       -0.46885537       -1.64602561
 C            2.98082025        1.63365001       -2.06024969
 C            1.80045222       -1.63751902       -1.99952377
 C            2.71223550       -0.67081451       -2.40873176
 C            2.22152335        0.63655884       -2.80182370
 C           -0.47544677       -2.35448274       -1.73892654
 C            0.44647102       -1.47096728       -2.29617535
 C           -2.82174683       -2.66386403       -1.19145680
 C           -3.90809230       -1.70984655       -1.31671840
 C           -1.79659782       -2.30854355       -2.15347274
 C           -3.61196487       -0.84291053       -2.44399669
 C           -2.25801227       -1.14872764       -2.89377838
 C           -4.52456822        1.02256154       -1.14135619
 C           -3.88734083        2.31245045       -0.93220842
 C           -4.03495001        0.47874733       -2.40000664
 C           -1.77451020        3.03158619       -2.01245233
 C           -3.16311600        2.64527640       -2.13513185
 C           -3.21410302        1.49542393       -3.02720771
 C            0.32701044        2.10346660       -2.79626600
 C            0.85242147        0.82205139       -2.96885468
 C           -0.00180898       -0.28349472       -2.88948021
 C           -1.36143717       -0.11654896       -3.17188966
 C           -1.02746726        2.30053847       -3.02000905
 C           -1.84718022        1.16758330       -3.39949053
