   70
C70 / DATE: 7/ 1/2024 / Origin: Program Fullerene / C70 from database
 C            1.61656867        0.06840955        4.43867913
 C            0.82247954       -1.14338995        4.35128143
 C            1.38525250       -1.98108684        3.30532815
 C            2.67740817       -0.03091390        3.45568197
 C            2.60879111       -1.34482239        2.84765039
 C            2.58975514        1.11962955        2.57768227
 C            0.76381957        1.17806853        4.05177462
 C            1.34997239        1.80954594        2.88868924
 C           -0.56490995       -0.74739117        4.23993436
 C           -0.59010725        0.67880704        3.94554988
 C           -1.41806284       -1.57349503        3.52642342
 C            0.52922467       -2.56224122        2.36575570
 C           -0.84690268       -2.55570295        2.60919742
 C            1.00243637       -2.80359742        1.06762905
 C            2.93288598       -1.44896575        1.50573908
 C            2.32173573       -2.45028176        0.76074381
 C            2.92067507        0.93747916        1.23950218
 C            3.39322798       -0.31182694        0.84007163
 C            2.32117783        1.75754772        0.28319743
 C            0.52205554        2.17372449        1.83513333
 C            1.08977233        2.35820771        0.58121227
 C           -1.39319853        1.12603316        2.90009417
 C           -0.85989783        1.98791572        1.92851315
 C           -2.55158771       -0.97203084        2.84959916
 C           -2.54600909        0.40108083        2.60742012
 C           -1.76659508       -2.69347100        1.49299870
 C           -2.93283194       -1.87835832        1.78069226
 C            0.08875066       -3.06169618        0.03391134
 C           -1.24898849       -2.72414267        0.20647798
 C            0.54376089       -3.24839952       -1.26560972
 C            2.84782910       -2.73849302       -0.49264463
 C            1.96612082       -3.23508833       -1.52696163
 C            3.84963799       -0.45522879       -0.46293063
 C            3.72817262       -1.75736769       -1.10038343
 C            2.76102548        1.67717555       -1.04298070
 C            3.48932473        0.55526644       -1.44332970
 C            2.08190112        2.39004208       -2.02918086
 C            0.31583329        2.91280862       -0.43096865
 C            0.92161787        3.17266101       -1.65614672
 C           -1.66725088        2.40394951        0.86464970
 C           -1.08028612        2.93414835       -0.29273981
 C           -3.43969849        0.91437254        1.67869743
 C           -3.00995906        2.01856013        0.84073556
 C           -3.68167303       -1.37780083        0.72835995
 C           -4.17001636       -0.01669668        0.83495340
 C           -1.94229407       -2.11808318       -0.84669624
 C           -3.19340773       -1.55842888       -0.63031880
 C           -0.11515463       -2.51557445       -2.33274102
 C           -1.26460356       -1.79909549       -2.02041024
 C            2.18924701       -2.44645409       -2.72848109
 C            3.29250584       -1.55147466       -2.47132593
 C            3.07809632       -0.13326415       -2.65546132
 C            0.91504560       -1.87675347       -3.12644044
 C            1.74355501        1.69663548       -3.26452252
 C            1.93469463        0.32193647       -3.30021885
 C            0.80354834       -0.51218867       -3.37768874
 C            0.11692715        3.31816348       -2.85115908
 C            0.49779494        2.24435184       -3.75303970
 C           -1.89622981        3.18884486       -1.39758044
 C           -1.31914913        3.27876819       -2.72328102
 C           -3.70687245        1.89480162       -0.43166051
 C           -4.22405612        0.54170027       -0.50104625
 C           -3.57802071       -0.39315449       -1.40784088
 C           -3.09707728        2.40109629       -1.56377263
 C           -1.50283896       -0.56321716       -2.63539086
 C           -0.47590472        0.05243081       -3.37263326
 C           -0.63173566        1.34968145       -3.84985633
 C           -1.79348109        2.11660436       -3.46475232
 C           -2.70085443        0.11983057       -2.36368375
 C           -2.80297232        1.47989857       -2.65008095
