   70
C70 / DATE: 7/ 1/2024 / Origin: Program Fullerene / C70 from database
 C            1.44429281       -0.01315159        4.99280606
 C            0.65256893       -1.22652162        4.91406066
 C            1.55559006       -2.28598561        4.52459209
 C            2.66115866       -0.24140411        4.23009380
 C            2.75643095       -1.65952424        3.98073969
 C            2.63925037        0.65842324        3.09482273
 C            0.70204132        1.03646637        4.32133965
 C            1.55851613        1.60302757        3.30140782
 C           -0.50961766       -0.94749445        4.07998427
 C           -0.56614618        0.49048680        3.88632077
 C           -0.82558936       -1.78668241        3.00535323
 C            1.09343146       -3.24460836        3.54699426
 C           -0.17019183       -3.00758576        2.86427741
 C            2.90107643       -2.11689339        2.61079123
 C            2.11416191       -3.32198947        2.51681950
 C            2.84008278        0.17388581        1.80206589
 C            2.84215150       -1.20613690        1.54975531
 C            2.54158909        1.03480099        0.75233037
 C            0.94924771        2.11899158        2.16675027
 C            1.67626006        2.10924265        0.98562445
 C           -1.08300417        0.96532623        2.69233616
 C           -0.43568209        2.02529771        2.05675418
 C           -1.52448249       -1.25875055        1.91128958
 C           -1.83806910        0.10250873        1.90727833
 C           -1.65385548       -2.00184773        0.72568446
 C           -0.00022183       -3.54941054        1.53625824
 C            1.43158223       -3.56860529        1.27325323
 C           -0.82308455       -3.10921541        0.50727716
 C            2.50348982       -1.67246025        0.26427614
 C            1.86897163       -2.91996400        0.12789065
 C            2.71922839        0.58689909       -0.54800306
 C            2.51359809       -0.77180548       -0.81643018
 C            2.62475687        1.52862939       -1.56479793
 C            1.14179321        2.79410418       -0.10223892
 C            1.79887937        2.69759598       -1.32625275
 C           -1.02760767        2.53273338        0.90503354
 C           -0.21566706        3.12315777       -0.06741302
 C           -2.49789127        0.64983045        0.81530266
 C           -2.24687183        1.98776217        0.51479763
 C           -2.35073115       -1.44032904       -0.35799810
 C           -2.96677424       -0.19574664       -0.18481613
 C           -2.13485702       -1.93412403       -1.65608719
 C           -0.33773417       -3.31827297       -0.77496546
 C            1.08812326       -3.14756437       -0.99109111
 C           -1.02678354       -2.72592702       -1.89217754
 C            2.03297918       -1.17979991       -2.07322635
 C            1.25946052       -2.32272702       -2.16074793
 C           -0.02662432       -2.25181431       -2.83492063
 C            2.38788342        1.08564544       -2.91790317
 C            1.92641515       -0.26694485       -3.11597334
 C            1.09780735        3.01703836       -2.56041022
 C            1.42412481        1.98726027       -3.52770215
 C           -0.81719552        3.68064503       -1.19351622
 C           -0.20947010        3.47394443       -2.49614226
 C           -2.95989739        2.60557936       -0.50224750
 C           -2.25602965        3.53997917       -1.36049841
 C           -3.74304157        0.34572448       -1.20809706
 C           -3.81743005        1.79137657       -1.34102608
 C           -2.61850523       -1.22866901       -2.74859000
 C           -3.60760126       -0.19749650       -2.54018252
 C           -0.32380057       -1.14067189       -3.62272481
 C            0.68710936       -0.21382631       -3.88430196
 C            0.34840173        1.18758191       -4.08701853
 C           -1.65898521       -0.74633480       -3.73387745
 C           -1.21862613        2.85505288       -3.34372496
 C           -2.50722364        3.14999621       -2.73835775
 C           -3.53838039        2.13321676       -2.72853205
 C           -3.29707323        0.89935005       -3.44262698
 C           -0.96881653        1.60308679       -3.91689559
 C           -1.97889110        0.64563802       -4.00284615
