   70
C70 / DATE: 7/ 1/2024 / Origin: Program Fullerene / C70 from database
 C            1.27178464       -0.02139659        5.07734804
 C            0.49481234       -1.21855603        4.80432993
 C            1.34337185       -2.13893932        4.08993712
 C            2.50034080       -0.11125710        4.30663039
 C            2.59123663       -1.44997978        3.78028755
 C            2.51398348        0.99134339        3.37078414
 C            0.51864563        1.11952543        4.58085477
 C            1.33476974        1.80889547        3.61717715
 C           -0.74250279       -0.80661694        4.17893496
 C           -0.76693081        0.64852756        4.13876636
 C           -1.24504863       -1.50249290        3.07784774
 C            0.85272139       -2.71313721        2.85125007
 C           -0.41300862       -2.37839000        2.35722918
 C            2.83291674       -1.61988249        2.35987650
 C            1.96989033       -2.70015730        1.93028887
 C            2.90947853        0.79128639        2.04686961
 C            2.96989854       -0.51070129        1.51776044
 C            2.68979682        1.85775788        1.18608639
 C            0.72626123        2.40523964        2.51866785
 C            1.57913833        2.74778302        1.48264324
 C           -1.36574405        1.25025449        3.03785039
 C           -0.62430232        2.12910460        2.22148279
 C           -2.31771204       -0.90698284        2.42873893
 C           -2.41433055        0.54294126        2.47367962
 C           -2.67582927       -1.32545911        1.09095117
 C           -0.66325298       -2.63834502        0.99905713
 C           -1.79681444       -2.11029531        0.36914745
 C            1.68646028       -2.79197323        0.58379173
 C            0.38831599       -3.12570878        0.21680932
 C            2.80283915       -0.72483200        0.13895164
 C            2.42486811       -2.00140081       -0.28856556
 C            2.70813513        1.64712305       -0.24510934
 C            2.67282825        0.35736104       -0.74001541
 C            1.02962108        3.20114547        0.23352798
 C            1.83955888        2.64396239       -0.83757412
 C           -1.16151043        2.54499545        0.98203661
 C           -0.34467202        3.24163239        0.06946619
 C           -2.97963658        0.98758989        1.22845555
 C           -3.29396837       -0.19032604        0.43633924
 C           -2.43469782        2.08769835        0.58811216
 C           -3.22864020       -0.08322635       -0.94740630
 C           -1.88164690       -2.10418092       -1.02416087
 C           -2.59025571       -1.08783899       -1.68292117
 C            0.16351307       -3.43261522       -1.11882777
 C           -1.05599974       -2.95988116       -1.74486819
 C            2.29193162       -2.25756001       -1.64702463
 C            1.25238062       -3.18960306       -2.04995848
 C            2.20112494        0.14988325       -2.03733332
 C            2.24796579       -1.13578913       -2.56479408
 C            1.22009164        2.37294137       -2.05133231
 C            1.46876233        1.15317111       -2.69010409
 C           -0.79279557        3.49672063       -1.22145787
 C            0.04319295        3.06582013       -2.33321409
 C           -2.90191580        2.33222064       -0.69808065
 C           -3.34519226        1.19507057       -1.49240660
 C           -2.16367654        3.21649042       -1.56250359
 C           -0.82748973        2.62325629       -3.40824015
 C           -2.97425778        1.43801796       -2.87554334
 C           -2.19291240        2.66472134       -2.90798228
 C           -2.48765155       -0.95282519       -3.06810170
 C           -2.57759919        0.36965045       -3.66640030
 C           -0.76125790       -2.68512686       -3.14162639
 C            0.68364530       -2.72029063       -3.29751287
 C            1.38182270       -1.50191049       -3.67344758
 C           -1.47196287       -1.69326075       -3.79774363
 C            0.80905178        0.86730534       -3.88613966
 C           -0.43527711        1.55244002       -4.19799468
 C           -1.42130088        0.53757339       -4.53136011
 C            0.67146125       -0.50984845       -4.32962385
 C           -0.73682402       -0.73866278       -4.61259323
