   70
C70 / DATE: 7/ 1/2024 / Origin: Program Fullerene / C70 from database
 C            1.39171520        0.00322907        4.89073592
 C            0.63938540       -1.18012327        4.52824870
 C            1.34823298       -1.86847552        3.46176515
 C            2.61021338        0.00242966        4.10641912
 C            2.56359919       -1.12262249        3.18816715
 C            2.75339817        1.32613905        3.54243475
 C            0.60851059        1.15688396        4.47591741
 C            1.43136055        1.94375852        3.58725484
 C           -0.71855811       -0.75564813        4.26751967
 C           -0.66188083        0.67085298        3.98446114
 C           -1.47251324       -1.54254542        3.41885370
 C            0.60381774       -2.37389356        2.39858040
 C           -0.77670098       -2.49143621        2.55771142
 C            1.13135683       -2.33036837        1.10656997
 C            2.94709337       -0.91340774        1.86760130
 C            2.31696682       -1.62920858        0.84904382
 C            3.48202856        1.44319623        2.37014990
 C            3.64829157        0.25156596        1.54414717
 C            3.13461034        2.52771384        1.47610950
 C            0.88160133        2.44481749        2.40787476
 C            1.76186545        2.99592816        1.48296618
 C           -1.14974395        1.13188983        2.75987917
 C           -0.38491100        2.01021439        1.97727875
 C           -2.43884131       -0.88515987        2.56910459
 C           -2.19990905        0.42907263        2.16617671
 C           -1.61897291       -2.69680902        1.38765000
 C           -2.79820602       -1.86633097        1.56971223
 C            0.36108726       -2.79484172        0.03628029
 C           -1.03051997       -2.77142453        0.12785377
 C            0.95489499       -2.92894178       -1.21102814
 C            2.68992470       -1.38637211       -0.47127489
 C            2.19527763       -2.21902691       -1.46587272
 C            3.71361717        0.68140384        0.15541829
 C            3.44906814        2.10466383        0.12429281
 C            3.12529813       -0.10912999       -0.82144740
 C            1.35267160        3.14000008        0.10429076
 C            2.38882199        2.57871654       -0.74350977
 C           -0.84389164        2.35684781        0.69920488
 C            0.04109170        2.88800961       -0.24488896
 C           -2.72574669        0.86192493        0.94824916
 C           -2.10032646        1.91076620        0.26774007
 C           -3.46789573       -1.42212244        0.44935727
 C           -3.59874624        0.01079686        0.26462716
 C           -1.80147601       -2.47967444       -1.00490770
 C           -3.08432050       -1.95888489       -0.83955522
 C            0.12808881       -2.82938057       -2.40094417
 C           -1.20993515       -2.46758733       -2.27213429
 C            2.14698595       -1.71500885       -2.82519471
 C            0.92671630       -2.20382016       -3.43862522
 C            2.57334573        0.51339773       -1.94496698
 C            1.98935649        1.77449935       -1.80834598
 C            2.20519770       -0.27940642       -3.02294052
 C           -0.22490620        2.68317438       -1.58913256
 C            0.72261146        1.99308022       -2.35812910
 C           -2.53703349        2.26671261       -1.01382615
 C           -1.55024959        2.71552154       -1.97699002
 C           -3.87048240        0.22296428       -1.14450912
 C           -3.61353672       -1.04275592       -1.82935181
 C           -3.48056606        1.41905546       -1.72396838
 C           -1.83955881       -1.80553714       -3.33372972
 C           -3.06019320       -1.04865223       -3.10084851
 C            0.34248463       -1.11440871       -4.19367605
 C            1.05202316        0.10379674       -3.82011163
 C            0.32423206        1.24240845       -3.47167395
 C           -1.03830762       -1.06706130       -4.30330333
 C           -1.91601464        2.21665619       -3.28241626
 C           -3.14156295        1.44976763       -3.13666479
 C           -2.96421570        0.19539150       -3.84333530
 C           -0.95623025        1.40286779       -3.99835794
 C           -1.66088965        0.22995123       -4.48398659
