   70
C70 / DATE: 7/ 1/2024 / Origin: Program Fullerene / C70 from database
 C            1.29746834        0.02978644        4.45222613
 C            2.52115217       -0.33494297        3.78233901
 C            2.52986980       -1.78087707        3.62718182
 C            0.47686223       -1.16824480        4.57591576
 C            1.22277085       -2.28238630        4.02546038
 C           -0.82761150       -0.85387635        4.01900204
 C            0.46427127        1.05591164        3.85920022
 C           -0.90437748        0.59123451        3.97498945
 C            0.85277672        1.69372314        2.67704484
 C            2.80146642        0.25035862        2.48661753
 C            1.96143772        1.23273509        1.95311608
 C            3.03269717       -2.08083642        2.29474838
 C            3.25778102       -0.81688606        1.61553575
 C            2.48238716       -3.13837294        1.58570380
 C            0.56559827       -3.18177298        3.19579226
 C            1.31200325       -3.81268140        2.12247091
 C           -1.30439567       -1.59158751        2.93537188
 C           -0.75475488       -2.84248475        2.67400765
 C           -2.08504760       -0.95843878        1.96064109
 C           -1.84611829        1.17239929        3.15122432
 C           -2.56631399        0.32391440        2.21533676
 C           -0.10363781        2.46912725        2.02109524
 C           -1.44370340        2.33513836        2.39228633
 C            0.18911565        3.02660093        0.77674154
 C            2.03180315        1.48070628        0.57867043
 C            1.20934917        2.45664878        0.00409790
 C            2.99223902       -0.69807155        0.25905008
 C            2.71584866        0.57138822       -0.23443608
 C            2.29863025       -3.01071978        0.14930360
 C            2.60594673       -1.81420233       -0.49406341
 C            0.39281371       -4.05045582        1.02579273
 C           -0.86413953       -3.39893649        1.33993895
 C            1.05983737       -3.67547236       -0.20677051
 C           -2.12530174       -1.46036313        0.65291778
 C           -1.47177188       -2.65526052        0.33797941
 C           -2.66463337       -0.68498721       -0.38414918
 C           -2.97233656        1.17278559        1.10461527
 C           -2.46899377        2.50811341        1.38675566
 C           -2.89223997        0.67765533       -0.19334898
 C           -0.81262023        3.77370030        0.16061257
 C           -2.18810150        3.34124264        0.32396488
 C           -0.66480150        4.17027043       -1.22208433
 C            1.31464103        2.73568038       -1.36849292
 C            0.44116597        3.63242599       -1.97802326
 C            2.71855631        0.73980937       -1.60646975
 C            2.05673445        1.88769738       -2.18439984
 C            2.09137070       -1.60754901       -1.77887134
 C            2.41536277       -0.41678292       -2.42542700
 C            0.29767499       -3.10663089       -1.21745704
 C           -1.05714069       -2.86629750       -0.97325755
 C            0.95224814       -2.32415032       -2.16751081
 C           -2.67898099       -1.19614061       -1.67784646
 C           -1.83171920       -2.33376061       -1.99182022
 C           -2.63235725       -0.27791545       -2.80215777
 C           -2.75933423        1.57284823       -1.26485435
 C           -2.62582191        2.93640171       -0.99351782
 C           -1.88958740        3.78221132       -1.90943878
 C           -2.54656794        1.09010604       -2.56358368
 C           -0.07038486        3.32353641       -3.30323997
 C           -1.51875919        3.24504191       -3.19701584
 C           -1.89355891        1.88250903       -3.51311987
 C            1.52411135        1.48281261       -3.47746570
 C            1.64213891        0.03583412       -3.56886680
 C            0.38712354        2.11239151       -3.96501735
 C           -0.79195848        1.31654621       -4.27349042
 C            0.24260327       -1.95649299       -3.30791310
 C           -1.20185552       -2.08087275       -3.27361554
 C           -1.77317116       -0.86465491       -3.81857732
 C            0.56303012       -0.72069345       -4.00139068
 C           -0.68878925       -0.06549392       -4.36005479
