   70
C70 / DATE: 7/ 1/2024 / Origin: Program Fullerene / C70 from database
 C            1.37174964       -0.02025796        4.01470055
 C            2.50960658       -0.09212307        3.11559878
 C            2.41378326       -1.34567361        2.37616413
 C            0.50462372       -1.14777501        3.72654439
 C            1.13644690       -1.94931675        2.69223605
 C           -0.83412111       -0.63824869        3.48134282
 C            0.55810445        1.17724990        4.02101363
 C           -0.80854518        0.79670016        3.67831404
 C            1.09237215        2.34215132        3.49465986
 C            2.94952224        1.05734578        2.45691736
 C            2.27640560        2.27047459        2.64705246
 C            3.70727478        0.90113595        1.29673971
 C            2.89112829       -1.39339170        1.07044052
 C            3.81192669       -0.41920927        0.70084768
 C            2.15816037       -2.07451972        0.08180317
 C            0.34833464       -2.42023967        1.65638053
 C            0.92228513       -2.65938572        0.40784372
 C           -1.54541471       -1.15445761        2.40757121
 C           -1.03096473       -2.26704944        1.75026941
 C           -2.49665732       -0.36187409        1.75963491
 C           -1.56914808        1.60528840        2.83657126
 C           -2.52399971        1.02425766        1.99446874
 C            0.19235449        3.32015839        2.91513207
 C           -1.16653330        2.92140814        2.59938492
 C            2.04166959        3.12613194        1.49356839
 C            0.79005115        3.81272148        1.68227323
 C            3.49589197        1.83155747        0.20006745
 C            2.36917804        2.63505061        0.24014994
 C            4.13196520       -0.22882778       -0.69548477
 C            3.84140265        1.15924647       -1.02643052
 C            2.60265529       -2.06094649       -1.25039317
 C            3.45695186       -1.04612362       -1.67484793
 C            1.85241985       -2.69599071       -2.23411205
 C            0.14946773       -3.29087810       -0.57160305
 C            0.60360111       -3.34309288       -1.88580795
 C           -1.83037207       -2.92158587        0.83492096
 C           -1.19806451       -3.54529432       -0.31357677
 C           -3.27958601       -0.93977273        0.74688158
 C           -3.04387847       -2.26571508        0.38234970
 C           -3.97794491       -0.13200907       -0.14832006
 C           -3.21855209        1.86431182        1.12653002
 C           -3.95991373        1.30197946        0.02084435
 C           -1.47833855        3.53602352        1.32163260
 C           -0.20810767        3.70801574        0.64274124
 C           -2.53328070        3.02500224        0.59544674
 C            1.35599225        2.45153370       -0.72231831
 C            0.06163548        2.93904109       -0.49152863
 C            2.86856524        1.14903342       -2.09444790
 C            3.00204564       -0.14756409       -2.72349626
 C            1.59141657        1.65462863       -1.85263705
 C            1.64542753       -1.99368097       -3.49089874
 C            1.98385605       -0.58484193       -3.54796360
 C           -0.33351756       -3.12525300       -2.98495237
 C            0.24891523       -2.11974047       -3.84860332
 C           -2.14648932       -3.49702521       -1.40998159
 C           -3.26591757       -2.66618231       -0.99761233
 C           -1.68447417       -3.01788278       -2.69610922
 C           -3.84007181       -0.37322692       -1.57524876
 C           -3.44984071       -1.63288036       -2.00027325
 C           -2.34356857       -1.74159213       -2.94050461
 C           -3.40280806        1.87315434       -1.20070629
 C           -2.30885988        2.72966936       -0.80500619
 C           -1.01365800        2.42959838       -1.22570926
 C           -3.13502668        0.77756466       -2.10251476
 C            0.51031298        1.13814441       -2.57502554
 C            0.72954058        0.15392836       -3.54108443
 C           -0.33267262       -0.78909179       -3.84116236
 C           -1.57110756       -0.61370295       -3.23946190
 C           -0.79435094        1.40928724       -2.15876247
 C           -1.85125458        0.59462926       -2.60245273
