   70
C70 / DATE: 7/ 1/2024 / Origin: Program Fullerene / C70 from database
 C            1.20972485       -0.11303374        4.57312795
 C            2.51604217       -0.29472399        3.97222129
 C            2.52136171       -1.59691756        3.32493021
 C            0.40888845       -1.28302731        4.24363465
 C            1.16182853       -2.08866902        3.31039161
 C           -0.89889809       -0.82390331        3.84340161
 C            0.43154670        1.06619511        4.23380203
 C           -0.91882086        0.62648294        3.94129563
 C            0.99578361        2.06719199        3.45819847
 C            2.99327634        0.68144355        3.00839923
 C            2.29253521        1.86375894        2.81769781
 C            3.19744833       -1.45735894        2.05313318
 C            3.48359171       -0.04484014        1.84976406
 C            2.73426431       -2.18192545        0.96150393
 C            0.59865530       -2.40903842        2.07920224
 C            1.44952372       -2.74142005        1.02149646
 C           -1.52440641       -1.40860154        2.74844126
 C           -0.75130739       -2.12037515        1.81671844
 C           -2.69382052       -0.79093548        2.31991256
 C           -1.71064387        1.32309410        3.03083698
 C           -2.82441242        0.63879998        2.55758674
 C            0.15280519        2.79094576        2.52288531
 C           -1.13374020        2.32926002        2.23503963
 C            2.20936358        2.42002627        1.48059100
 C            1.00982354        3.23615309        1.43856401
 C            3.32673939        0.48179335        0.56569100
 C            2.54435699        1.62942090        0.37996762
 C            3.24520332       -1.80687895       -0.27449249
 C            3.51013756       -0.39472387       -0.49899407
 C            2.68024422       -2.35750886       -1.49055204
 C            0.89305220       -3.31430132       -0.11700415
 C            1.56168885       -3.17266021       -1.39969776
 C           -1.27283952       -2.39549995        0.54590251
 C           -0.53331540       -3.16475047       -0.33977739
 C           -3.20129304       -1.05753627        0.98954255
 C           -2.36930043       -1.67940592        0.06987337
 C           -3.59669030        1.19934873        1.47649302
 C           -3.94807400        0.10957199        0.58095889
 C           -1.74758887        2.73823704        1.03930289
 C           -2.99897565        2.24928577        0.68439552
 C            0.43935940        3.51097540        0.21092866
 C           -0.99973928        3.39193230        0.06362331
 C            1.93783605        1.88583238       -0.85866143
 C            1.04059600        2.93978210       -0.98003785
 C            2.97936642       -0.05930739       -1.80286403
 C            2.72906463       -1.30979729       -2.49842979
 C            2.06328874        0.97936740       -1.91110345
 C            1.81085924       -1.31544221       -3.53573936
 C            0.53996963       -3.10110259       -2.42977255
 C           -0.75418498       -3.01089349       -1.76582807
 C            0.77227290       -2.33665668       -3.56611987
 C           -2.47565977       -1.37713129       -1.29880915
 C           -1.70286160       -2.09773073       -2.22485358
 C           -3.77503421        0.58256109       -0.76951938
 C           -3.27532500        1.94869960       -0.71228782
 C           -3.23022895       -0.26547800       -1.72021505
 C           -1.27171526        3.12887089       -1.34215580
 C            0.00794082        2.87232798       -1.99394905
 C           -2.39124529        2.37751529       -1.70573398
 C            1.13615237        0.97560701       -2.96272968
 C            1.18044607       -0.06059514       -3.89985604
 C            0.07631317        1.89530670       -2.97798107
 C           -0.36864637       -1.76597611       -4.25785077
 C           -1.63835337       -1.68888031       -3.55753110
 C           -0.01037290       -0.41023414       -4.64513801
 C           -2.93046419        0.32991113       -2.93305787
 C           -2.35624206        1.66519354       -2.90609544
 C           -1.10749965        1.58605466       -3.64196326
 C           -2.24143245       -0.43424262       -3.94422350
 C           -1.18821893        0.41055692       -4.48643079
