   70
C70 / DATE: 7/ 1/2024 / Origin: Program Fullerene / C70 from database
 C            1.58343757        0.08595732        4.64401251
 C            0.78751436       -1.12667470        4.57587424
 C            1.46417659       -2.04506580        3.68301253
 C            2.60811073        0.00413622        3.61556230
 C            2.57989924       -1.33025071        3.07757490
 C            2.41887045        1.10509808        2.69948943
 C            0.71852231        1.19721728        4.30503895
 C            1.35692953        1.93865121        3.23606901
 C           -0.58037066       -0.75548899        4.27555900
 C           -0.61400347        0.68189037        4.05652622
 C           -1.31663867       -1.57931792        3.44087619
 C            0.71086829       -2.89262008        2.87047942
 C           -0.67787607       -2.73411190        2.81787943
 C            1.36435634       -3.47553729        1.78768988
 C            2.80372089       -1.52031565        1.72286669
 C            2.54260180       -2.80222775        1.26661790
 C            2.44236490        0.86650548        1.32223530
 C            2.65937368       -0.43371829        0.83369034
 C            1.87168119        1.83157137        0.48474396
 C            0.54196687        2.58070932        2.32133832
 C            1.07553422        2.82466304        1.06360332
 C           -1.30741978        1.20623330        2.96804003
 C           -0.84015099        2.39746146        2.41814774
 C           -2.19862073       -0.97905672        2.45557348
 C           -2.10009867        0.37400233        2.16976996
 C           -1.39608297       -3.00404374        1.57978069
 C           -2.33475200       -1.91157231        1.35694353
 C            0.60198053       -3.94860438        0.64465762
 C           -0.72537940       -3.55353942        0.49194355
 C            2.63579869       -3.08233019       -0.14137893
 C            1.50004519       -3.91728401       -0.49761035
 C            2.57798002       -0.66426998       -0.54979356
 C            2.66158840       -1.96397426       -1.05265486
 C            1.81033634        1.60808403       -0.89309608
 C            2.11097015        0.34070686       -1.40105124
 C            1.27967052        2.59405148       -1.73509067
 C            0.39702617        3.72328793        0.25704051
 C            0.53060674        3.63267553       -1.18182181
 C           -1.64349714        3.03098690        1.47990376
 C           -1.00439586        3.94564185        0.55460848
 C           -2.52293821        0.83024207        0.91997111
 C           -2.55117600        2.19990713        0.70601954
 C           -2.51643048       -1.43098340        0.06294647
 C           -2.53845309       -0.04857917       -0.17239588
 C           -1.24751490       -3.34596776       -0.78530150
 C           -2.23959681       -2.29809461       -0.98106429
 C            0.99853544       -3.44647049       -1.77079219
 C            1.83520437       -2.33105902       -2.18780302
 C           -0.37114169       -3.35001372       -1.94923266
 C            1.70409340       -0.00717223       -2.69178742
 C            1.27208858       -1.31071781       -2.94006097
 C            1.13825746        2.33502415       -3.09670589
 C            1.34944417        0.98716780       -3.58930663
 C           -0.02363609        2.87660653       -3.78179551
 C           -0.76508747        3.97272143       -1.76265850
 C           -1.73549687        3.88622388       -0.69233452
 C           -2.59161520        2.71432004       -0.64714543
 C           -1.10424552        3.38933643       -2.96899122
 C           -2.49810516        0.44970909       -1.49232276
 C           -2.55503166        1.83689558       -1.72517915
 C           -2.13636446        2.35839274       -2.95283560
 C           -2.08057462       -1.77723695       -2.31790314
 C           -0.87641267       -2.36250017       -2.88221201
 C            0.01599311       -1.51169620       -3.52352092
 C           -2.32507144       -0.43506209       -2.57309628
 C            0.28908085        0.68476902       -4.52923037
 C           -0.58268726        1.83843512       -4.62358113
 C           -1.86676522        1.46291190       -4.05259488
 C           -0.54379836       -0.46370221       -4.24285653
 C           -1.82719951        0.04706567       -3.78088038
