   70
C70 / DATE: 7/ 1/2024 / Origin: Program Fullerene / C70 from database
 C            1.51840048        0.19967556        4.99564928
 C            0.70932999       -1.00278322        5.01006155
 C            1.47945368       -2.04733068        4.36398281
 C            2.63637354       -0.02840165        4.09031772
 C            2.63026820       -1.42329351        3.72558113
 C            2.55499015        0.96124339        3.03397545
 C            0.71042955        1.26316050        4.42948376
 C            1.49268644        1.88103036        3.38743259
 C           -0.60378380       -0.66914292        4.47715488
 C           -0.57919659        0.72101015        4.05365436
 C           -1.26251615       -1.59205992        3.68161670
 C            0.82196597       -2.87178953        3.36907432
 C           -0.55660685       -2.78424920        3.22259135
 C            2.59062242       -1.76867355        2.31869161
 C            1.64702795       -2.85979575        2.17103071
 C            2.66584029        0.58505725        1.68763139
 C            2.61417492       -0.77447512        1.33966473
 C            2.30039238        1.54597791        0.72690292
 C            0.82249067        2.45233745        2.32837178
 C            1.56587086        2.64435197        1.18124450
 C           -1.09855944        1.08266181        2.80659744
 C           -0.53708681        2.17437198        2.14865120
 C           -2.06512762       -1.10894411        2.57075829
 C           -1.84060713        0.16333311        2.06061897
 C           -1.12809540       -3.14694509        1.94324138
 C           -2.20463188       -2.21297472        1.65252127
 C            1.03597980       -3.03903330        0.93456661
 C           -0.28059355       -3.50262103        0.89883633
 C            2.22022355       -1.12467086        0.05279327
 C            1.52609154       -2.32270095       -0.16081250
 C            2.20874957        1.17673467       -0.62513755
 C            2.28992697       -0.17432019       -0.95727249
 C            1.74888303        2.10815560       -1.57213249
 C            1.01700340        3.51519021        0.26585501
 C            1.36328988        3.36941897       -1.12395929
 C           -1.11217260        2.61150724        0.95705250
 C           -0.42585265        3.63116839        0.30746754
 C           -2.08406016        0.41134013        0.70301895
 C           -1.83377742        1.68709680        0.18347470
 C           -2.47923313       -1.96311674        0.31687222
 C           -2.44940841       -0.63914173       -0.15642408
 C           -0.87828060       -3.66773448       -0.34164181
 C           -2.14525406       -2.99149241       -0.55445520
 C            1.04112024       -2.62558863       -1.43369227
 C           -0.09107742       -3.42859418       -1.53522606
 C            2.10624603       -0.58086144       -2.26896399
 C            1.43424721       -1.84332754       -2.51936589
 C            1.42016479        1.69594457       -2.87465285
 C            1.65319620        0.37786226       -3.25607768
 C            0.60608426        2.48919125       -3.69059622
 C            0.33880631        4.10803836       -1.83235515
 C           -0.85581827        4.05151407       -1.00063463
 C           -0.04264365        3.66297109       -3.14740786
 C           -2.08910245        1.95054577       -1.17267615
 C           -1.80539933        3.21798471       -1.69421287
 C           -1.46587994        3.36343825       -3.09486677
 C           -2.59306529       -0.39268384       -1.53105019
 C           -2.42342855        0.89871965       -2.03665510
 C           -2.29598494       -2.79010353       -1.97099056
 C           -1.04617016       -3.19193966       -2.60223078
 C           -2.59750577       -1.45950968       -2.43603445
 C            0.53717576       -1.65597239       -3.65315053
 C            0.70855535       -0.29713799       -4.13852768
 C           -0.73958045       -2.20228300       -3.61565364
 C           -1.89206136       -1.31742289       -3.69379941
 C           -0.39957881        1.84596364       -4.51357733
 C           -1.69271553        2.24541165       -3.97411691
 C           -2.28986659        1.05105168       -3.42333221
 C           -0.40237822        0.39753225       -4.60239165
 C           -1.72896042       -0.03987722       -4.19236499
