   70
C70 / DATE: 7/ 1/2024 / Origin: Program Fullerene / C70 from database
 C            1.02316857       -0.09350751        4.56251034
 C            2.29250306       -0.39575224        3.94301617
 C            2.20745296       -1.75102610        3.42370469
 C            0.18491465       -1.27522798        4.42734117
 C            0.81516909       -2.13447865        3.44466060
 C           -1.16232618       -0.82101868        4.18199275
 C            0.25837084        1.03137209        4.06296719
 C           -1.13281945        0.63290948        4.09215964
 C            0.70958840        1.74643271        2.95694020
 C            2.75720826        0.44859211        2.85952041
 C            1.98267813        1.51114223        2.41707123
 C            2.88678666       -1.76604573        2.15191009
 C            3.35456785       -0.41761722        1.86605105
 C            2.33441842       -2.48151895        1.10363225
 C            0.17642223       -2.39052978        2.22757786
 C            0.94642163       -2.72277522        1.10218018
 C           -1.84870694       -1.30148953        3.00286465
 C           -1.19054820       -2.11471800        2.07645821
 C           -1.98515039        1.01861277        2.97826970
 C           -2.62893303       -0.18966532        2.50275055
 C           -0.22491374        2.45487086        2.19890626
 C           -1.50778024        1.92670938        2.03458293
 C            0.24657769        3.37199773        1.27175593
 C            2.29006383        2.06392363        1.17916352
 C            1.61784187        3.22594027        0.82272805
 C            3.38744969       -0.00514485        0.53105120
 C            2.83469340        1.23869778        0.18081286
 C            2.99033757       -2.33188245       -0.10589321
 C            3.48386296       -1.00555661       -0.44037973
 C            2.42172333       -2.92033807       -1.29085630
 C            0.29656620       -3.08628231       -0.08620789
 C            1.04024736       -3.33691363       -1.24136890
 C           -1.78180873       -2.25889593        0.81980254
 C           -1.08516952       -2.91493157       -0.19792163
 C           -3.02353131       -0.23780165        1.18077664
 C           -2.87552719       -1.44231259        0.50541505
 C           -2.10131482        1.94066502        0.76602127
 C           -3.02017831        0.94034113        0.43959395
 C           -0.55911535        3.65933336        0.10093911
 C           -1.59960001        2.79080141       -0.22835426
 C            1.69094189        3.70118876       -0.54114502
 C            0.35374656        4.12086256       -0.92849125
 C            2.58009559        1.51837966       -1.16933647
 C            2.17713066        2.79136445       -1.55362324
 C            3.07733464       -0.72620088       -1.80458712
 C            2.54760076       -1.95286851       -2.36960065
 C            2.43093143        0.46845983       -2.07112950
 C            0.47501221       -3.00178681       -2.53448918
 C            1.27134675       -1.90583768       -3.05701961
 C           -1.69181732       -3.09598248       -1.44243318
 C           -0.89805482       -2.92160037       -2.64507482
 C           -3.52913371       -1.58435130       -0.70968260
 C           -2.97752181       -2.47740787       -1.70436285
 C           -3.57382308        0.91117351       -0.83273745
 C           -3.96473176       -0.37736663       -1.39083259
 C           -1.95158212        2.59521210       -1.57363634
 C           -2.93859629        1.67009633       -1.89048847
 C            0.13804369        3.68740032       -2.28951160
 C            1.30390156        2.92232765       -2.70463141
 C           -1.02868058        2.88215246       -2.57839250
 C            1.38742875        0.49477025       -3.00196129
 C            0.66598568       -0.66888319       -3.26789218
 C            0.83033455        1.71271825       -3.35771149
 C           -0.61255247        1.80518693       -3.46120890
 C           -1.46622427       -1.78532895       -3.34603037
 C           -2.85932994       -1.73271367       -2.95076897
 C           -3.47518320       -0.43966652       -2.75768548
 C           -2.67802144        0.74727787       -2.98379745
 C           -0.72264458       -0.60505238       -3.44022359
 C           -1.37354855        0.63956492       -3.46566071
