   70
C70 / DATE: 7/ 1/2024 / Origin: Program Fullerene / C70 from database
 C            1.00601853       -0.06032301        4.89849310
 C            2.27155538       -0.26426984        4.22014979
 C            2.20863716       -1.56087056        3.56943428
 C            0.16484609       -1.21522188        4.61570006
 C            0.83301753       -2.00487916        3.60033041
 C           -1.16926869       -0.73508636        4.34973768
 C            0.23032110        1.13150609        4.60605910
 C           -1.14837531        0.71830391        4.43466232
 C            0.74986302        2.10617089        3.76141038
 C            2.71165334        0.70329614        3.22836504
 C            2.02332327        1.89570251        3.07733135
 C            2.83663357       -1.43073441        2.27582485
 C            3.12396693       -0.02883852        2.04286108
 C            2.31177111       -2.13535031        1.21062885
 C            0.20380271       -2.27224576        2.38174191
 C            0.99948139       -2.61976493        1.28530361
 C           -1.79358407       -1.08416187        3.09019148
 C           -1.11400779       -1.85725231        2.14985591
 C           -1.90727548        1.23213760        3.30633606
 C           -2.49639991        0.09358393        2.62867104
 C           -0.13196572        2.79559292        2.83111345
 C           -1.39172905        2.26783296        2.52951961
 C            1.90905532        2.47625475        1.75176157
 C            0.71099486        3.29452768        1.75708532
 C            2.87304806        0.48480045        0.76434021
 C            2.21072990        1.71026628        0.62259942
 C            2.77960423       -1.77810606       -0.03753760
 C            2.88304639       -0.40864707       -0.31193323
 C            2.48794335       -2.65336749       -1.06498912
 C            0.37851312       -3.01927558        0.09575103
 C            1.19941513       -3.31344885       -0.99793602
 C           -1.59495053       -1.86098237        0.84054711
 C           -0.94794448       -2.63562367       -0.12000231
 C           -2.75358678        0.21103382        1.27434045
 C           -2.51655995       -0.88279239        0.44332309
 C           -1.92355192        2.46437106        1.25140034
 C           -2.76325394        1.48186506        0.71287191
 C            0.12316851        3.60628495        0.54749534
 C           -1.29854186        3.37324550        0.39933923
 C            1.64564027        2.06150814       -0.61028270
 C            0.74692045        3.12460076       -0.67162360
 C            2.56025093        0.05947067       -1.58659634
 C            1.76197810        1.20129043       -1.70619870
 C            2.70756602       -2.22009254       -2.42441728
 C            2.73077496       -0.79535288       -2.67293282
 C            0.65294467       -3.34550047       -2.34414929
 C            1.65785823       -2.79918248       -3.24229984
 C           -1.51934470       -2.75244681       -1.38391536
 C           -0.68557229       -3.03907868       -2.53813061
 C           -2.93079065       -0.80792972       -0.88800969
 C           -2.52876926       -1.79125648       -1.79004412
 C           -3.24389111        1.60961723       -0.58568896
 C           -3.44571758        0.39799174       -1.36530557
 C           -1.56355473        3.32003429       -1.02485683
 C           -0.28166690        3.12191729       -1.69303763
 C           -2.66744636        2.61092984       -1.46754193
 C            0.92945790        1.38040442       -2.82529609
 C           -0.18995983        2.20982780       -2.73666082
 C            1.97931064       -0.56549939       -3.88701755
 C            1.27151123       -1.79722433       -4.21516172
 C            1.01555442        0.51154338       -3.90912361
 C           -1.08970113       -2.14728121       -3.61922827
 C           -2.28733305       -1.44694449       -3.18659697
 C           -0.13279351       -1.46516088       -4.36702001
 C           -0.21117873       -0.01871441       -4.47645726
 C           -3.27103834        0.74767576       -2.76234630
 C           -2.63366834        2.05253066       -2.80582213
 C           -1.34497181        1.87835742       -3.44585236
 C           -2.50901437       -0.14453923       -3.61645868
 C           -1.40276963        0.62297005       -4.17410509
