   70
C70 / DATE: 7/ 1/2024 / Origin: Program Fullerene / C70 from database
 C            1.40124352       -0.04852917        4.51980869
 C            2.66846464       -0.18373628        3.82882812
 C            2.62665472       -1.41472908        3.05867884
 C            0.57888653       -1.19526093        4.17343160
 C            1.31963916       -2.02072123        3.24138229
 C           -0.72290188       -0.70856417        3.76470958
 C            0.61323541        1.15055781        4.29966738
 C           -0.68872832        0.74486915        3.78566316
 C            1.22691250        2.27220384        3.76010438
 C            3.09734142        0.88322833        2.94186185
 C            2.48020913        2.12446862        3.02220305
 C            3.05971159       -1.11556311        1.70540371
 C            3.34504889        0.30581368        1.62983809
 C            2.38357138       -1.71224046        0.64975134
 C            0.65825310       -2.50216882        2.11742153
 C            1.37747103       -2.63443630        0.93441684
 C           -1.36251920       -1.32815985        2.70301483
 C           -0.73266613       -2.38710515        2.04234482
 C           -2.29953758       -0.58540400        2.00335116
 C           -1.27946435        1.45653579        2.73415954
 C           -2.03284606        0.76463277        1.78095259
 C            0.39999491        3.21785229        3.03557990
 C           -0.84731529        2.74981685        2.45641119
 C            2.37865328        2.93122615        1.82117187
 C            1.20159763        3.76837450        1.96128685
 C            2.96806509        1.00516192        0.48489776
 C            2.64525249        2.36454207        0.57537658
 C            2.39099733       -1.08667400       -0.59576600
 C            2.65212897        0.28878126       -0.67615848
 C            1.86536061       -1.77152363       -1.69301957
 C            0.77975892       -3.30951504       -0.11662291
 C            1.09225002       -2.90799108       -1.47697694
 C           -1.40101273       -2.98554160        0.96872931
 C           -0.64677992       -3.57646200       -0.04816476
 C           -3.12521450       -1.26278484        1.12550840
 C           -2.71410452       -2.59118765        0.71135819
 C           -3.57395690       -0.57470906       -0.06438196
 C           -2.18895529        1.29229363        0.49032314
 C           -2.86804820        0.55335714       -0.47883366
 C           -0.90863789        3.23720142        1.08925250
 C            0.33965748        3.93101420        0.80739554
 C           -1.47766257        2.42685165        0.10787841
 C            2.15349960        3.01945043       -0.54974003
 C            0.90521951        3.76688755       -0.44370224
 C            2.44624995        0.97574809       -1.87433119
 C            2.13384846        2.33093269       -1.82681068
 C            1.78475427       -1.14012870       -2.92593033
 C            2.12151566        0.26695671       -3.02660383
 C            0.63297003       -1.39672242       -3.78171195
 C           -0.09172293       -3.12922898       -2.29297807
 C           -1.14756298       -3.61936460       -1.41606747
 C           -0.37930272       -2.24032271       -3.32868260
 C           -3.31064983       -2.83770182       -0.59059278
 C           -3.94920479       -1.60049556       -1.01571570
 C           -2.47087103       -3.29877577       -1.67800447
 C           -1.70605017       -1.91866055       -3.62533858
 C           -3.63890437       -1.39711558       -2.40883444
 C           -2.78686362       -2.49618209       -2.84347686
 C           -2.55738365        0.74762206       -1.83302837
 C           -2.98173773       -0.16693477       -2.80078934
 C           -2.06835037       -0.52884929       -3.86451709
 C           -1.08668854        2.57119507       -1.22545434
 C            0.05954138        3.30634193       -1.52378080
 C            0.96104209        2.81207110       -2.54161035
 C           -1.59201653        1.69446996       -2.18879979
 C            1.20481412        0.87305030       -3.97739425
 C            0.26658974       -0.14410941       -4.41599717
 C           -1.07381491        0.36939172       -4.20667672
 C            0.43580342        2.02587741       -3.54982836
 C           -0.94473249        1.58882163       -3.42584095
