   70
C70 / DATE: 7/ 1/2024 / Origin: Program Fullerene / C70 from database
 C            1.46172421        0.13570113        5.16037937
 C            0.67034185       -1.07598943        5.08057471
 C            1.47601757       -2.08181403        4.41412583
 C            2.64629641       -0.05662717        4.33743928
 C            2.65462908       -1.42338106        3.87135941
 C            2.66143296        0.99596594        3.34787141
 C            0.68325184        1.21138282        4.56811606
 C            1.52179608        1.86555618        3.59446908
 C           -0.62128597       -0.72874603        4.51039265
 C           -0.57200999        0.66779580        4.10310544
 C           -1.25120413       -1.63883280        3.67458131
 C            0.87090252       -2.84728974        3.34207223
 C           -0.50541149       -2.78452676        3.16230927
 C            2.68003022       -1.66883280        2.43791917
 C            1.72742513       -2.72900519        2.17103714
 C            2.97079533        0.70255687        2.01991452
 C            2.76656766       -0.60167209        1.54001314
 C            2.82497369        1.76067467        1.13430899
 C            0.92872959        2.44222526        2.47985578
 C            1.79805086        2.74039403        1.44505532
 C           -1.01467793        1.02686131        2.82871709
 C           -0.38765810        2.08232773        2.14414385
 C           -2.05914610       -1.13201699        2.58006733
 C           -1.86981740        0.16791271        2.13288075
 C           -1.03391012       -3.08240623        1.84592520
 C           -2.15486541       -2.19058485        1.60003306
 C            1.14670496       -2.79945728        0.91046004
 C           -0.14822348       -3.30963616        0.80001004
 C            2.32522676       -0.80199845        0.22212084
 C            1.63987312       -1.97628656       -0.10766625
 C            2.74522272        1.50135399       -0.28717317
 C            2.44077213        0.22179676       -0.72275750
 C            1.25595793        3.21841637        0.20105014
 C            2.03177034        2.61989660       -0.86947553
 C           -0.91014278        2.48748092        0.90455733
 C           -0.11961501        3.27618678        0.05326309
 C           -2.23641828        0.48751604        0.83168307
 C           -1.99344820        1.77509147        0.37544402
 C           -2.43795807       -1.86666504        0.27753023
 C           -2.58052784       -0.52233322       -0.08059662
 C           -0.70156923       -3.40401472       -0.46578669
 C           -1.98477524       -2.75558232       -0.68654675
 C            1.17004872       -2.16345927       -1.40782348
 C            0.12146649       -3.05629791       -1.60184447
 C            1.86602067        0.06991162       -1.98704777
 C            1.41557588       -1.19377153       -2.38153487
 C            1.40458136        2.44328550       -2.09217353
 C            1.53486354        1.21396746       -2.73553584
 C           -0.58115583        3.57653563       -1.22239836
 C            0.26996802        3.21242757       -2.34558655
 C           -2.57771171        2.17638625       -0.81762669
 C           -1.93841661        3.22776353       -1.57390369
 C           -2.80458906       -0.18710461       -1.42362977
 C           -3.01128158        1.15172177       -1.75333964
 C           -2.03859724       -2.37451529       -2.08270074
 C           -0.79892348       -2.83211411       -2.69590714
 C           -2.54270178       -1.12489251       -2.43316516
 C            0.88580935       -1.37744438       -3.66031202
 C           -0.33524467       -2.15566885       -3.80814533
 C            0.98471632        1.08237686       -4.00590297
 C            0.78810662       -0.24159313       -4.55466719
 C           -0.58691576        2.87929924       -3.47004834
 C           -1.95650475        2.85229028       -2.97686685
 C           -2.72668612        1.62543895       -3.09916661
 C           -0.17773919        1.88900575       -4.35346312
 C           -2.35177604       -0.70353096       -3.74988499
 C           -1.28355142       -1.32233563       -4.51876789
 C           -0.52737376       -0.27421263       -5.17362697
 C           -2.36444800        0.71098771       -4.07626980
 C           -1.18336817        0.98614826       -4.88144389
