   70
C70 / DATE: 7/ 1/2024 / Origin: Program Fullerene / C70 from database
 C            1.17199608        0.24831244        4.83584774
 C            2.49077704        0.04036471        4.27834491
 C            2.55499684       -1.33604770        3.82047723
 C            0.36929453       -0.92777282        4.52030932
 C            1.18852778       -1.82435379        3.73641273
 C           -0.88259936       -0.47039714        3.96013396
 C            0.42477627        1.41323476        4.41125902
 C           -0.92252557        0.96821334        4.11595235
 C            0.88648165        2.17216793        3.25857733
 C            2.92720996        0.87210291        3.17061061
 C            2.04467294        1.78782861        2.58624770
 C            3.37425649       -1.35835428        2.62009219
 C            3.73691997        0.01999217        2.31697839
 C            2.99478124       -2.20210808        1.58499312
 C            0.71854256       -2.28795648        2.50997222
 C            1.65098344       -2.76166943        1.59381787
 C           -1.33293343       -1.00040890        2.75560357
 C           -0.57028859       -1.94988057        2.06825331
 C           -2.27517888       -0.27012490        2.03799578
 C           -1.39791020        1.74724514        2.99250875
 C           -0.28801261        2.53138261        2.48315410
 C           -2.20456912        1.12747162        2.05638064
 C           -0.16830280        2.67954661        1.10161306
 C            2.18130601        2.10463832        1.23260263
 C            1.10513885        2.66506986        0.53146355
 C            3.93208536        0.40338117        0.99837176
 C            3.27992318        1.61076660        0.53057743
 C            3.30999162       -1.84132524        0.21212691
 C            3.81362256       -0.58118126       -0.06834244
 C            1.25649750       -2.97574987        0.21992104
 C            2.27089563       -2.39447207       -0.63707133
 C           -0.99657972       -2.34430556        0.79286648
 C           -0.06783744       -2.80938054       -0.14577245
 C           -2.90776768       -0.87706453        0.95572452
 C           -2.27203028       -1.97032546        0.34926707
 C           -3.77048927       -0.07273674        0.21104643
 C           -2.39600851        1.79552316        0.85863274
 C           -1.29164761        2.44060524        0.29241217
 C           -3.40906401        1.31972085        0.04636849
 C           -1.17901130        2.54989175       -1.10105649
 C            1.23173795        2.92921786       -0.82834245
 C            0.03739460        2.93670720       -1.65690100
 C            3.22664805        1.52314576       -0.91452339
 C            3.35386376        0.11740909       -1.25755014
 C            2.28988711        2.28304809       -1.59023942
 C            1.84742269       -1.71064730       -1.77330292
 C            2.39678558       -0.46064029       -2.09135971
 C           -0.34646461       -2.66170593       -1.50105950
 C            0.61816475       -2.07136905       -2.32673532
 C           -2.68846578       -2.41977021       -0.90767416
 C           -1.67426524       -2.72273389       -1.89899594
 C           -4.30862482       -0.54032293       -1.04730128
 C           -3.79225621       -1.77177088       -1.59196669
 C           -3.36998573        1.58926115       -1.37257289
 C           -2.18948952        2.05689336       -1.93491186
 C           -4.09700623        0.51403190       -2.02875864
 C           -1.91133466        1.75555006       -3.27036592
 C            0.41815271        2.43040125       -2.96363377
 C            1.67962742        1.73162265       -2.78592391
 C            1.74501322        0.35604093       -3.01999562
 C           -0.55086308        1.85964698       -3.77114914
 C            0.24960861       -1.50047536       -3.53875188
 C            0.82729287       -0.21851549       -3.89397735
 C           -0.23561202        0.60948239       -4.43784238
 C           -2.08603042       -2.14278485       -3.16586705
 C           -3.38236796       -1.51430701       -2.96331551
 C           -3.53220889       -0.08875116       -3.22065065
 C           -2.51846578        0.58418657       -3.89049135
 C           -1.14199866       -1.50525452       -3.95753977
 C           -1.44708085       -0.18944086       -4.49297481
