   70
C70 / DATE: 7/ 1/2024 / Origin: Program Fullerene / C70 from database
 C            1.34483626        0.06266551        5.05870485
 C            0.58971952       -1.10673617        4.64474609
 C            1.52537199       -2.02337114        4.03988901
 C            2.61349551        0.03086143        4.35017157
 C            2.78869191       -1.31573910        3.85998443
 C            2.60914268        1.12033637        3.38909237
 C            0.62375613        1.23257066        4.59827272
 C            1.53119435        2.01418837        3.78056210
 C           -0.53854410       -0.65160666        3.85398066
 C           -0.62132345        0.79080439        3.99131148
 C           -0.78577248       -1.20971944        2.60188073
 C            1.18518197       -2.61273546        2.75989729
 C           -0.00125461       -2.26672738        2.11507742
 C            3.17881395       -1.49838744        2.47692886
 C            2.39985920       -2.61295844        1.97553941
 C            2.81813986        0.84716479        2.03124701
 C            3.34735788       -0.39252697        1.64361319
 C            2.28005050        1.71381813        1.06862894
 C            0.96371770        2.81687502        2.80949702
 C            1.54696957        2.81606779        1.48131942
 C           -1.11569294        1.52947437        2.92028162
 C           -0.47041147        2.71847800        2.60346988
 C           -1.59558977       -0.50261981        1.71613012
 C           -1.80237467        0.86745560        1.89916406
 C           -1.95208012       -1.08870687        0.51022174
 C           -0.11910261       -2.62528448        0.77008367
 C           -1.22571167       -2.18576592        0.04157582
 C            2.27618880       -2.74193479        0.60262452
 C            1.02211303       -3.06574298        0.08876069
 C            3.51605204       -0.66164015        0.28883476
 C            3.12584181       -1.97653724       -0.19008475
 C            2.24237280        1.34030791       -0.27566161
 C            3.04742503        0.29738942       -0.69496234
 C            1.23907360        1.83111332       -1.12518514
 C            0.53594473        3.35206549        0.59373514
 C           -0.72690345        3.31123199        1.31445055
 C            0.51853449        2.97300028       -0.74697342
 C           -2.34255199        1.61668839        0.84559739
 C           -1.83531989        2.90364159        0.59659862
 C           -2.85045835       -0.43327834       -0.32430173
 C           -3.04491136        0.94724108       -0.16857017
 C           -3.31427411       -1.10560366       -1.45126304
 C           -1.42532116       -2.65794726       -1.25900777
 C           -2.49525416       -2.16649747       -2.00985753
 C            0.93358716       -3.33720337       -1.27057876
 C           -0.35794567       -3.25574478       -1.92647969
 C            2.83762886       -1.85734195       -1.60545009
 C            2.69293090       -0.43563025       -1.89536093
 C            1.92222114       -2.73860288       -2.15879244
 C            0.85627142        1.09012462       -2.26127216
 C            1.62065160       -0.00617386       -2.67558030
 C           -0.29186413        1.44270197       -2.98589613
 C           -0.63125778        3.31308288       -1.45503950
 C           -1.87484316        3.37968092       -0.70224401
 C           -0.93061640        2.64373418       -2.70144236
 C           -3.59695509        1.70305258       -1.20690062
 C           -2.94118696        2.93798026       -1.56163124
 C           -2.36767463        2.74790366       -2.88085473
 C           -3.86899666       -0.36452786       -2.56393723
 C           -3.95087743        1.07444217       -2.46254668
 C           -3.07038445        1.63761280       -3.48074983
 C           -2.29042499       -1.86154505       -3.42391850
 C           -0.90801525        0.51135950       -3.83585247
 C           -3.04403497       -0.66190761       -3.71984399
 C           -2.29330982        0.54109415       -4.01400745
 C           -0.10379829       -2.88688533       -3.30491131
 C            1.22927336       -2.32117201       -3.35862718
 C            1.08409780       -0.89829904       -3.60056670
 C           -1.00071804       -1.93842986       -3.92410046
 C           -0.26075145       -0.69067856       -4.09942089
