   70
C70 / DATE: 7/ 1/2024 / Origin: Program Fullerene / C70 from database
 C            1.58528810       -0.01675956        4.53373176
 C            0.80410507       -1.20193479        4.23509242
 C            1.57297932       -2.02571525        3.33453956
 C            2.73956150       -0.01782648        3.65055539
 C            2.71421458       -1.24026000        2.88595879
 C            2.73911107        1.22773903        2.92684495
 C            0.77566740        1.14178619        4.19697358
 C            1.56100609        1.98044879        3.33069898
 C           -0.49928009       -0.77503434        3.79496546
 C           -0.49582364        0.67600153        3.70029210
 C           -1.11590967       -1.47610797        2.77367041
 C            0.90673687       -2.78386753        2.37945754
 C           -0.46075276       -2.54358970        2.13506837
 C            1.69904522       -3.25802404        1.34426858
 C            2.98770271       -1.20110092        1.51929521
 C            2.72382299       -2.37133727        0.81543404
 C            3.07143164        1.23289952        1.57434317
 C            2.96877511        0.03513564        0.84195004
 C            2.86341675        2.44163022        0.92129809
 C            0.92332932        2.71568742        2.34346033
 C            1.78099539        3.27871823        1.41216379
 C           -1.03377609        1.26440414        2.55394713
 C           -0.36665198        2.32894271        1.92119258
 C           -2.13178717       -0.82668663        2.09788084
 C           -1.99691297        0.54411299        1.84527300
 C           -2.96702473       -1.60282699        1.32025383
 C           -1.10427741       -3.17315996        1.04964482
 C           -2.40011742       -2.78454258        0.70177585
 C            1.08069246       -3.94024330        0.23564842
 C           -0.35413732       -3.84566591        0.08718237
 C            2.54415769       -2.32067852       -0.61723292
 C            1.69029393       -3.43280387       -0.98228935
 C            2.65134590        0.07882994       -0.53164715
 C            2.32389097       -1.09390366       -1.21767438
 C            2.81007348        2.48063732       -0.52139323
 C            2.64079353        1.29564868       -1.22232829
 C            1.22762184        3.99876609        0.29684727
 C            1.99977742        3.63387794       -0.87870583
 C           -0.88545141        2.83458391        0.71508441
 C           -0.16332980        3.78248768       -0.01553196
 C           -2.58829513        1.11413110        0.71820682
 C           -1.99273407        2.22285754        0.11658239
 C           -3.84319347       -0.96051185        0.36804660
 C           -3.60458661        0.43098890        0.04993076
 C           -2.77966851       -2.75756834       -0.70485400
 C           -3.78359980       -1.71948530       -0.87019737
 C           -0.62618716       -3.60146445       -1.32051123
 C            0.62838372       -3.19712539       -1.93779540
 C           -1.79965656       -2.94100990       -1.67884587
 C            1.57479056       -1.03129819       -2.39514729
 C            0.64693491       -2.03554317       -2.69730180
 C            2.10345089        1.35422373       -2.50880936
 C            1.55717859        0.15478790       -3.11528011
 C            1.07128800        3.51716791       -1.98685663
 C           -0.26028324        3.79386584       -1.46405447
 C            1.24551662        2.47182609       -2.88286733
 C           -2.34329315        2.56432885       -1.19210981
 C           -1.36342599        3.19848442       -2.05261024
 C           -3.72713992        0.56453739       -1.38968236
 C           -3.65068297       -0.77278472       -1.95964905
 C           -3.07495066        1.61640283       -2.01271922
 C           -1.79394653       -2.13936601       -2.82448368
 C           -0.52022264       -1.70559979       -3.37625464
 C           -2.73726019       -1.03761898       -2.97034514
 C            0.36026522        0.52874634       -3.85061964
 C            0.09220758        1.93197883       -3.58231248
 C           -1.18682795        2.33463278       -3.21098555
 C           -2.27655383        1.36956815       -3.20498887
 C           -0.69167926       -0.37291909       -3.92691821
 C           -2.04643230        0.06349786       -3.62455678
