   70
C70 / DATE: 7/ 1/2024 / Origin: Program Fullerene / C70 from database
 C            1.57992740       -0.02687338        4.65477633
 C            0.76798027       -1.22629533        4.71877485
 C            1.39848194       -2.23909412        3.88732063
 C            2.61104197       -0.24766082        3.65656210
 C            2.43489353       -1.57904867        3.11035414
 C            2.57739147        0.87154488        2.73608581
 C            0.73424412        1.05189537        4.17489189
 C            1.41097878        1.67542693        3.05735526
 C           -0.60750415       -0.85056281        4.43610858
 C           -0.59395788        0.52054933        3.94879719
 C           -1.42354668       -1.77899663        3.80713818
 C            0.58674561       -3.17444757        3.26409569
 C           -0.85382517       -3.06466753        3.43461790
 C            0.83253303       -3.50876945        1.87062134
 C            2.46186212       -1.72536916        1.72560975
 C            1.71223917       -2.73631957        1.11157100
 C            2.83696909        0.63487206        1.39100684
 C            2.97752591       -0.68363121        0.95122524
 C            2.41782330        1.59627709        0.47419796
 C            0.65096710        2.14557838        1.99379983
 C            1.30835935        2.38447198        0.79497555
 C           -1.23213096        0.83303905        2.75053670
 C           -0.71447641        1.85468978        1.94176454
 C           -2.27407818       -1.34572205        2.71115097
 C           -2.16606643       -0.05254975        2.21121334
 C           -1.48242506       -3.49154615        2.19783510
 C           -0.43598880       -3.91635448        1.28894468
 C           -2.38733942       -2.44125450        1.76587078
 C           -0.63468223       -3.71867597       -0.06780072
 C            1.63408610       -2.79092699       -0.28389452
 C            0.48873798       -3.30567268       -0.88836366
 C            3.19827020       -0.91104655       -0.39987110
 C            2.48521059       -1.99826866       -1.04545797
 C            2.81269517        1.47213737       -0.85607932
 C            3.20810089        0.21765891       -1.31828125
 C            2.39270338        2.43097702       -1.77273807
 C            0.60948049        3.02740534       -0.21785918
 C            1.26520370        3.27379911       -1.41919355
 C           -1.42960641        2.24298067        0.80394335
 C           -0.78507836        3.02220964       -0.16727184
 C           -2.66454399        0.20735758        0.94172005
 C           -2.55890651        1.50080716        0.44950038
 C           -2.46456267       -2.13760949        0.41018616
 C           -1.78409819       -2.93918322       -0.50533091
 C           -2.81213848       -0.84295809        0.03060355
 C           -0.05594935       -2.64440731       -2.06545469
 C           -1.46557111       -2.40037581       -1.81901867
 C            2.03620905       -1.51988657       -2.34509872
 C            2.71945767       -0.26562551       -2.60196443
 C            0.69617881       -1.66255696       -2.70024803
 C            2.23759105        2.04832201       -3.16489062
 C            2.15176737        0.63728611       -3.48616496
 C            0.50210887        3.54000841       -2.62712757
 C            1.04606830        2.69726218       -3.68078587
 C           -1.51831533        3.51635138       -1.24380842
 C           -0.87453630        3.68301360       -2.53818118
 C           -3.22468083        1.79084613       -0.73473534
 C           -2.83913962        2.97091298       -1.47935354
 C           -2.88718725       -0.53906420       -1.32680395
 C           -2.00304084       -1.17865436       -2.19905549
 C           -3.40133148        0.70305395       -1.68101477
 C            0.04170821       -0.61568715       -3.35762503
 C            0.80206996        0.38480926       -3.96389667
 C            0.19946293        1.67189310       -4.27088637
 C           -1.33367100       -0.43064660       -3.17023986
 C           -1.69965460        3.00691851       -3.52565068
 C           -2.95606826        2.65693215       -2.89248678
 C           -3.11905117        1.21855425       -3.00601417
 C           -1.17611636        1.81414846       -4.17205341
 C           -1.96780540        0.68641919       -3.70845436
