   70
C70 / DATE: 7/ 1/2024 / Origin: Program Fullerene / C70 from database
 C            1.61426108        0.01906542        4.69865512
 C            0.78506368       -1.13725328        4.41639650
 C            1.40041604       -1.89054150        3.33569578
 C            2.72633899        0.00059045        3.76848642
 C            2.59117099       -1.17209645        2.92006559
 C            2.79448724        1.30318849        3.13487429
 C            0.82500367        1.20388851        4.41098872
 C            1.56028209        2.00843778        3.45003525
 C           -0.57560360       -0.67104705        4.23505604
 C           -0.51598396        0.77213655        4.06113361
 C           -1.39619169       -1.40199648        3.39323272
 C            0.57459980       -2.44660524        2.36229658
 C           -0.79891908       -2.45277302        2.58284624
 C            1.04109264       -2.56406906        1.05226656
 C            2.85600057       -1.04709523        1.56161823
 C            2.19847873       -1.88100542        0.65942271
 C            3.27778587        1.36614948        1.83719550
 C            3.43776357        0.12861445        1.08817155
 C            2.71640664        2.34610162        0.92410879
 C            0.85457731        2.62531162        2.41907029
 C            1.54594133        3.01306798        1.26581147
 C           -1.12536975        1.35360675        2.95215570
 C           -0.53755899        2.47817967        2.37515124
 C           -2.32190409       -0.69276879        2.52955067
 C           -2.09500975        0.64437307        2.23563181
 C           -1.69078511       -2.67894608        1.46327866
 C           -2.66364589       -1.59450182        1.45035736
 C            0.21608865       -3.13625933        0.07644539
 C           -1.17316401       -3.11585300        0.24988616
 C            0.75399918       -3.39364387       -1.18469382
 C            2.47964982       -1.74882226       -0.69732371
 C            1.96884307       -2.69945105       -1.57075911
 C            3.32477414        0.45649466       -0.32300462
 C            2.85742532        1.82743447       -0.42786250
 C            2.80413752       -0.48609460       -1.19231993
 C            1.89131697        2.15053745       -1.38108039
 C            0.86037818        3.67273272        0.25314543
 C            1.04434128        3.22664570       -1.12261828
 C           -1.26753620        3.19229510        1.43598740
 C           -0.54573470        3.95953638        0.44305485
 C           -2.59192288        1.17119056        1.04162282
 C           -2.36656031        2.51972508        0.76525398
 C           -3.05684809       -1.07400323        0.22288602
 C           -3.05092045        0.31360727        0.02946026
 C           -2.00323641       -2.99809202       -0.86114148
 C           -2.98313790       -1.92462241       -0.87945775
 C           -0.11609693       -3.44321973       -2.34907675
 C           -1.46154838       -3.14088247       -2.19859861
 C            1.86760422       -2.36523704       -2.98083395
 C            0.61893273       -2.91091881       -3.48263081
 C            2.18988622       -0.03730462       -2.35615949
 C            1.52974956        1.19843728       -2.34400537
 C            1.92528509       -0.96505235       -3.35499033
 C            0.35770260        1.37823733       -3.09437798
 C           -0.23960924        3.30362284       -1.79322645
 C           -1.21565196        3.78843642       -0.83216353
 C           -2.41445351        3.00285159       -0.60523645
 C           -0.60827134        2.28469944       -2.66005301
 C           -3.32823827        0.82865677       -1.23703834
 C           -2.82469276        2.13784252       -1.60466254
 C           -1.95761353        1.94181023       -2.75497198
 C           -3.03982718       -1.38992096       -2.22831929
 C           -2.09444599       -2.13558890       -3.04640365
 C           -3.18422448       -0.02251509       -2.40719325
 C           -2.33678561        0.67832419       -3.36369128
 C           -0.00077822       -1.89809396       -4.31675016
 C            0.84439608       -0.71325343       -4.28204174
 C           -0.00724227        0.43479288       -4.05110759
 C           -1.35999466       -1.47643859       -4.02786220
 C           -1.38467371       -0.02465561       -4.08963940
