   70
C70 / DATE: 7/ 1/2024 / Origin: Program Fullerene / C70 from database
 C            1.57439226       -0.02165133        4.45382252
 C            0.75971315       -1.21028132        4.27903842
 C            1.34057772       -2.00480596        3.21066185
 C            2.62061845       -0.05208192        3.44900038
 C            2.52272944       -1.30489753        2.73535025
 C            2.53953592        1.16820646        2.67800589
 C            0.73523850        1.12994864        4.17694948
 C            1.36398355        1.89882169        3.11786221
 C           -0.61934659       -0.78695350        4.14833762
 C           -0.61965631        0.65695020        3.96441189
 C           -1.46060564       -1.55277717        3.35948984
 C            0.49420236       -2.60395978        2.27464262
 C           -0.88449949       -2.57417737        2.49209832
 C            0.97754681       -2.84637761        0.98456203
 C            2.77109520       -1.31272050        1.37257383
 C            2.24116088       -2.35764379        0.63698038
 C            2.78782804        1.10996351        1.31401131
 C            3.08636162       -0.11944698        0.70832528
 C            2.29991130        2.14205626        0.52537271
 C            0.55127247        2.47753643        2.14714018
 C            1.10353820        2.77153426        0.89703364
 C           -1.35016067        1.21261476        2.91689640
 C           -0.83134803        2.32617755        2.25424678
 C           -2.49468029       -0.88593990        2.59360671
 C           -2.37694141        0.47513305        2.31839575
 C           -1.79246796       -2.74902813        1.36874052
 C           -2.87653707       -1.79349906        1.53024473
 C            0.09488414       -3.26525912       -0.01741809
 C           -1.26880409       -2.98484175        0.10216786
 C            0.60267356       -3.68564594       -1.24221878
 C            2.72692110       -2.54237522       -0.64438335
 C            1.97317722       -3.35778471       -1.57465366
 C            3.32653124       -0.15871195       -0.67658705
 C            3.22011219       -1.37728923       -1.35527195
 C            2.77278352        2.23380647       -0.77186633
 C            3.21932971        1.01787395       -1.42454013
 C            2.04812186        3.02404181       -1.74114491
 C            0.32016155        3.44401771       -0.05099686
 C            0.75420087        3.55364234       -1.37110624
 C           -1.64264735        3.00123389        1.35703500
 C           -1.02839052        3.66301357        0.21936815
 C           -3.06835155        1.01624461        1.23107556
 C           -2.85289550        2.34902626        0.89169979
 C           -3.48544609       -1.27246362        0.40305822
 C           -3.67838103        0.16572536        0.30491488
 C           -2.02228601       -2.64713844       -1.03086512
 C           -3.08057097       -1.75248000       -0.90693231
 C           -0.18957692       -3.46531278       -2.43297108
 C           -1.45191715       -2.77248360       -2.29294368
 C            1.97075840       -2.67785061       -2.85983594
 C            2.60262719       -1.38938755       -2.67122284
 C            0.62245862       -2.71216125       -3.37562474
 C            2.57175470        0.96352457       -2.72792288
 C            1.86474880        2.20872619       -2.93195958
 C            1.97666546       -0.22991249       -3.11408013
 C           -0.16477419        3.22715713       -2.45212151
 C            0.44644098        2.14988999       -3.20437423
 C           -1.97841698        3.62097254       -0.87908730
 C           -3.09397512        2.78494125       -0.47315455
 C           -1.51951328        3.15789537       -2.17589073
 C           -3.67685084        0.50842910       -1.11121548
 C           -3.15084747       -0.63534959       -1.83465504
 C           -3.29865565        1.78251228       -1.50068065
 C           -2.23364070        1.92713219       -2.48008863
 C           -1.41628403       -1.59872120       -3.15449023
 C           -0.05561462       -1.45464841       -3.63142257
 C            0.60161083       -0.24729573       -3.41214789
 C           -0.17298605        0.90461097       -3.23667493
 C           -2.11903342       -0.46543312       -2.75657080
 C           -1.52956485        0.79542777       -2.90000082
