   70
C70 / DATE: 7/ 1/2024 / Origin: Program Fullerene / C70 from database
 C            1.50896873        0.19775560        5.02413421
 C            0.74344111       -1.03342114        5.04851736
 C            1.52304962       -2.04454793        4.36236565
 C            2.62645543        0.00872532        4.10994494
 C            2.65958542       -1.38249409        3.73526960
 C            2.50930808        1.00040116        3.05940397
 C            0.65747877        1.23209157        4.46581032
 C            1.39352904        1.86145819        3.39791149
 C           -0.59547401       -0.73892495        4.56484848
 C           -0.62625648        0.65028182        4.13459109
 C           -1.25466460       -1.68306414        3.79475786
 C            0.86950343       -2.85491563        3.34987236
 C           -0.51136203       -2.80464441        3.22416502
 C            2.63839233       -1.71513515        2.32569442
 C            1.67851986       -2.78784661        2.14789803
 C            2.66619934        0.64185745        1.71338905
 C            2.70215751       -0.71420974        1.34977005
 C            2.26314821        1.58509716        0.75667468
 C            0.68656911        2.37775942        2.33276686
 C            1.41493172        2.60982707        1.18331816
 C           -1.20260054        0.98330907        2.90454909
 C           -0.66273328        2.04019210        2.16839397
 C           -2.17184771       -1.22190404        2.77152705
 C           -2.04720471        0.07366705        2.26484919
 C           -1.10329634       -3.09482378        1.92942277
 C           -2.33060059       -2.32745452        1.84955606
 C            1.07607249       -2.90226569        0.90334016
 C           -0.29270433       -3.18098927        0.79745397
 C            2.36247083       -1.07332588        0.04353435
 C            1.71292197       -2.29236069       -0.16729942
 C            2.28713475        1.24611208       -0.60037755
 C            2.34710114       -0.10300208       -0.95899591
 C            1.91812969        2.20609870       -1.55080906
 C            0.81154437        3.42279240        0.24779266
 C            1.23676029        3.34294536       -1.12821375
 C           -1.27720055        2.42508196        0.97369141
 C           -0.63721941        3.42707909        0.24779138
 C           -2.50375135        0.34143696        0.96878336
 C           -2.08371835        1.49647090        0.29736834
 C           -2.85080987       -2.06052446        0.59968156
 C           -3.12633018       -0.67795514        0.25333866
 C           -0.89816129       -3.11120147       -0.46388554
 C           -2.21308498       -2.65897957       -0.56053105
 C            1.28817421       -2.62843992       -1.43800632
 C           -0.08708262       -3.06354981       -1.59553807
 C            2.12722797       -0.48963982       -2.28390665
 C            1.61212163       -1.75594573       -2.54553867
 C            1.88068331        1.86310275       -2.90056259
 C            2.06596033        0.47735679       -3.27960535
 C            0.84372233        2.42595292       -3.75984890
 C            0.12722026        3.84250245       -1.91825556
 C           -1.06872236        3.72960567       -1.09580902
 C           -0.15008837        3.21231272       -3.19072767
 C           -2.35056912        1.64587678       -1.08048367
 C           -1.95794454        2.80311594       -1.75086164
 C           -1.51987568        2.71133163       -3.13308255
 C           -3.16528829       -0.61349762       -1.19096390
 C           -2.61695792       -1.86077955       -1.70498751
 C           -2.83118477        0.56792443       -1.83231689
 C           -0.59119086       -2.48370386       -2.83436712
 C            0.55680867       -1.91595624       -3.53167334
 C           -1.81765284       -1.81684306       -2.84245405
 C            1.25760342        0.22647258       -4.46367511
 C            0.46832105        1.41674706       -4.73055559
 C            0.36306853       -0.91854454       -4.47462902
 C           -1.87445444        1.58978052       -3.86954548
 C           -2.54421184        0.49107330       -3.19524205
 C           -2.01244158       -0.75575348       -3.72320808
 C           -0.92427846        1.02036006       -4.81295048
 C           -0.98332066       -0.42731199       -4.69327001
