   70
C70 / DATE: 7/ 1/2024 / Origin: Program Fullerene / C70 from database
 C            1.11651130       -0.00254994        4.45123078
 C            2.46696493       -0.29993101        4.03622760
 C            2.48879473       -1.69830766        3.63878234
 C            0.32256330       -1.20134252        4.22242290
 C            1.11306967       -2.08449737        3.39862351
 C           -0.95507552       -0.77091667        3.71419233
 C            0.41614541        1.09217255        3.80801925
 C           -0.96510676        0.68355930        3.70949371
 C            0.98129430        1.74040412        2.71576575
 C            3.03177169        0.45455725        2.93649273
 C            2.22217113        1.32322859        2.20833057
 C            3.43119922       -1.81404199        2.55387055
 C            3.87724375       -0.46894672        2.20935542
 C            2.98720697       -2.42405473        1.32034766
 C            0.68651269       -2.35093269        2.09317790
 C            1.62794922       -2.67904143        1.10818672
 C           -1.50193146       -1.41998367        2.61696285
 C           -0.64926096       -2.10245135        1.73065882
 C           -2.67235399       -0.86241080        2.12996739
 C           -1.78262790        1.31518585        2.77936241
 C           -2.84883822        0.57218576        2.27939415
 C            0.14297246        2.51175752        1.91024068
 C           -1.24866838        2.34025223        1.98882285
 C            0.70416019        3.18149620        0.82759430
 C            2.55306211        1.59799535        0.87919155
 C            1.91694984        2.64964129        0.23847136
 C            3.90655847       -0.39154048        0.75757810
 C            3.73007119       -1.74923080        0.27829473
 C            3.21768028        0.63590320        0.11339425
 C            3.30609243       -1.92873419       -1.02187792
 C            1.20486934       -2.88956530       -0.20344677
 C            2.13487931       -2.75302649       -1.23806084
 C           -1.07593880       -2.38355863        0.42191910
 C           -0.15657523       -2.89532397       -0.50605953
 C           -3.15308195       -1.23446272        0.82345784
 C           -2.38779278       -2.06756241        0.02669042
 C           -3.59370573        1.05694656        1.13332141
 C           -3.77826431       -0.06517404        0.22064056
 C           -2.08223032        2.97803793        1.06695186
 C           -3.30073547        2.31307360        0.62931754
 C           -0.13807227        3.66521148       -0.24927448
 C           -1.51180983        3.66017036       -0.08332898
 C            1.72276087        2.58619182       -1.19826302
 C            0.44002819        3.20338525       -1.50504056
 C            2.88988065        0.47943561       -1.23882224
 C            3.11248974       -0.75477354       -1.85139238
 C            2.11547060        1.44601323       -1.88866994
 C            1.67579198       -2.45426898       -2.58157433
 C            2.26365848       -1.17276179       -2.95340569
 C           -0.53915540       -3.12279358       -1.82850773
 C            0.35585943       -2.72482560       -2.89971901
 C           -2.75642781       -2.14981159       -1.30880118
 C           -1.87944182       -2.79532125       -2.25323008
 C           -3.68553405        0.11672124       -1.16132385
 C           -3.31895790       -0.97112884       -1.95045371
 C           -3.45369108        2.54320201       -0.79204434
 C           -2.35096156        3.38087670       -1.23200047
 C           -3.53335437        1.40011682       -1.68522176
 C           -0.37213690        2.65222432       -2.49821242
 C           -1.75659500        2.75880285       -2.40166549
 C           -2.58404455        1.61860215       -2.76632573
 C            1.47503775        1.13958586       -3.08809689
 C            1.49109207       -0.22047040       -3.59923283
 C            0.16222438        1.70220293       -3.36192500
 C           -0.37696010       -1.81328403       -3.76323534
 C           -1.78031342       -1.93815294       -3.42641874
 C           -2.55677348       -0.73867017       -3.16606140
 C           -1.99828116        0.51863109       -3.38545502
 C            0.14285487       -0.55375801       -4.03264294
 C           -0.68914449        0.62983729       -3.85696124
