   70
C70 / DATE: 7/ 1/2024 / Origin: Program Fullerene / C70 from database
 C            1.25007754       -0.03290265        4.30734992
 C            2.46404530       -0.27140957        3.56391450
 C            2.38377309       -1.60839306        2.99636029
 C            0.41031206       -1.21422722        4.18799730
 C            1.06097259       -2.13329957        3.27718645
 C           -0.93780624       -0.77640568        3.87676929
 C            0.44265455        1.11516764        3.95606275
 C           -0.94088891        0.67953233        3.85379549
 C            0.91060273        2.05543217        3.04390439
 C            2.80975059        0.63907156        2.48988185
 C            2.02200994        1.76093527        2.23047329
 C            2.81519355       -1.52880125        1.61155290
 C            3.25278357       -0.16673546        1.36855562
 C            2.06177924       -2.17183661        0.63323211
 C            0.32229314       -2.65876250        2.22510491
 C            0.97557842       -2.95097435        1.02606392
 C           -1.66543511       -1.46381319        2.91362221
 C           -1.07065793       -2.53325819        2.23598276
 C           -2.75927349       -0.82000130        2.34602162
 C           -1.79927358        1.35553561        2.98243541
 C           -2.77130835        0.63227784        2.28872128
 C           -0.01302554        3.00282448        2.62198560
 C           -1.40350103        2.59764410        2.48285965
 C            0.30931480        3.87328940        1.51332774
 C            2.17041038        2.38598320        0.98587288
 C            1.45917468        3.54844363        0.70189662
 C            3.10839904        0.35026198        0.09159422
 C            2.81514821        1.70640018       -0.05395646
 C            2.13196054       -1.71126519       -0.68438676
 C            2.81856119       -0.52560521       -0.95397357
 C            1.34486627       -2.31152047       -1.67631132
 C            0.31320367       -3.70259219        0.06778314
 C            0.51669212       -3.38180338       -1.33504775
 C           -1.80996001       -3.22293412        1.27961515
 C           -1.09710997       -3.97681903        0.26342462
 C           -3.32866331       -1.31676229        1.10545280
 C           -2.92473950       -2.55221238        0.62962225
 C           -3.10541456        1.01084823        0.92202986
 C           -3.40469633       -0.19973608        0.17960343
 C           -1.83129503        2.99362671        1.15072136
 C           -0.84658122        3.91234967        0.62866515
 C           -2.39009245        2.03525248        0.31563313
 C            1.08045589        3.82718746       -0.67058485
 C           -0.36504485        3.71749869       -0.72025152
 C            2.82418997        2.25974997       -1.33258227
 C            1.81018972        3.23867189       -1.68722016
 C            2.89119920       -0.05739592       -2.25780556
 C            2.98507377        1.37432391       -2.47445532
 C            1.18172027       -1.68768550       -2.91898903
 C            1.98561016       -0.59918020       -3.25272111
 C            0.01076842       -1.90302169       -3.64629947
 C           -0.75708156       -3.54660399       -2.01895240
 C           -1.77105738       -3.76585234       -1.00404636
 C           -2.77372432       -2.73632277       -0.80275738
 C           -1.05946912       -2.68482182       -3.06070776
 C           -2.91103549       -0.34497409       -1.11104363
 C           -2.76733442       -1.63040559       -1.65111638
 C           -2.19801767       -1.78736767       -2.91170775
 C           -1.88619837        1.84760897       -0.98012219
 C           -0.92876810        2.72565740       -1.51792066
 C           -2.32970822        0.76076380       -1.74114716
 C            1.09163071        2.69784086       -2.82775022
 C            1.97958457        1.74020791       -3.45738441
 C            1.40736847        0.52101678       -3.98799954
 C           -0.26272840        2.38304733       -2.69743894
 C           -0.61954199       -0.77749874       -4.30960991
 C           -1.93808839       -0.61476472       -3.72124553
 C           -1.97548302        0.68280990       -3.08216027
 C            0.04842126        0.50582743       -4.26276501
 C           -0.82276577        1.43087716       -3.54461518
