   70
C70 / DATE: 7/ 1/2024 / Origin: Program Fullerene / C70 from database
 C            1.27046380       -0.10865699        4.40683075
 C            2.52093406       -0.35797305        3.73257877
 C            2.45810537       -1.69656154        3.16425933
 C            0.43372941       -1.28900500        4.24003629
 C            1.08633215       -2.15074878        3.28138824
 C           -0.90697887       -0.82639563        3.95172677
 C            0.47610567        1.03163449        3.99898185
 C           -0.90364839        0.61628703        4.14056499
 C            0.83906563        1.77908486        2.87655071
 C            2.92343237        0.53369554        2.66603694
 C            2.05782623        1.53357623        2.21587532
 C            3.05436053       -1.63268166        1.83881387
 C            3.59962455       -0.29498521        1.68836191
 C            2.37697064       -2.20844964        0.76406671
 C            0.41394309       -2.50720183        2.12008591
 C            1.16768718       -2.86323712        1.00495297
 C           -1.60259528       -1.36171491        2.86880605
 C           -0.94354984       -2.19717075        1.95653067
 C           -2.77617664       -0.72435685        2.47740918
 C           -1.88450878        1.36390006        3.51195433
 C           -2.98529701        0.65435088        2.88561239
 C           -0.12807572        2.59969305        2.28497938
 C           -1.47752172        2.42369211        2.60171215
 C            0.18664214        3.32167262        1.14048000
 C            2.31027910        2.11501694        0.96904510
 C            1.44755149        3.08063475        0.46972383
 C            3.76707693        0.20485161        0.41062999
 C            3.20861581        1.50838785        0.09090287
 C            2.68357013       -1.78967251       -0.53496190
 C            3.48252802       -0.66152492       -0.71839139
 C            1.96932249       -2.31071650       -1.61744431
 C            0.52668743       -3.50317429       -0.04255296
 C            1.03299017       -3.31426587       -1.38791966
 C           -1.57181433       -2.54084555        0.75484594
 C           -0.92086520       -3.42449753       -0.10326887
 C           -3.23825374       -0.85006440        1.10708064
 C           -2.58091965       -1.71801857        0.24681245
 C           -3.39785696        1.40942305        1.71625305
 C           -2.46819006        2.50362470        1.53755912
 C           -3.57267825        0.47844237        0.62313202
 C           -0.83318199        3.49464785        0.11806200
 C           -2.04060867        2.81540948        0.25250042
 C            1.21357796        3.15106503       -0.96639014
 C           -0.16896209        3.54575055       -1.17301410
 C            2.92686926        1.52228943       -1.33791934
 C            3.24397552        0.20246322       -1.85808988
 C            1.80296011        2.20277602       -1.80090814
 C            1.97034842       -1.63567363       -2.84104205
 C            2.51921596       -0.29239021       -2.92589456
 C            0.79786181       -1.68212887       -3.70458412
 C           -0.08673884       -3.47616488       -2.29846395
 C           -1.30426618       -3.46857289       -1.50269229
 C           -0.25660868       -2.52696342       -3.38315053
 C           -2.64359854       -1.46570157       -1.12585564
 C           -2.15734681       -2.41762350       -2.01543657
 C           -1.60643818       -1.99081441       -3.29026878
 C           -3.13550826        0.84302405       -0.64322113
 C           -2.54997735        2.10229564       -0.83915506
 C           -2.91638442       -0.17063953       -1.57485870
 C           -0.84066303        3.08831898       -2.29379483
 C           -2.14325409        2.46794505       -2.12079159
 C            1.11128341        1.73182048       -2.92307265
 C            1.51609553        0.55160197       -3.54915870
 C            0.52508849       -0.32605070       -4.15638684
 C           -0.11347339        2.29967064       -3.27105099
 C           -1.86785086       -0.70107268       -3.73185188
 C           -2.68747176        0.16647884       -2.90432537
 C           -2.32832490        1.53378876       -3.21741504
 C           -0.78846742        0.10936887       -4.27690995
 C           -1.09306495        1.49903242       -3.98490104
