   70
C70 / DATE: 7/ 1/2024 / Origin: Program Fullerene / C70 from database
 C            1.18874798       -0.15189453        4.41968987
 C            2.46434206       -0.43412389        3.80415492
 C            2.40300672       -1.78219241        3.26222573
 C            0.34359556       -1.32403271        4.23743023
 C            1.02134232       -2.20775745        3.31660333
 C           -0.97729113       -0.84804919        3.88991300
 C            0.42949987        0.99087977        3.95148766
 C           -0.96053575        0.59794809        4.05038991
 C            0.85358910        1.69030769        2.81947737
 C            2.92766566        0.43449455        2.74253309
 C            2.16534905        1.52994296        2.34354648
 C            3.05941488       -1.76694798        1.96807583
 C            3.52321733       -0.40912881        1.72060526
 C            2.49094145       -2.47064116        0.91341915
 C            0.40002269       -2.55489216        2.12363911
 C            1.19371820       -2.98011289        1.05705149
 C           -1.63815377       -1.39286434        2.79061474
 C           -0.94034437       -2.21156678        1.89176312
 C           -2.80101724       -0.75775856        2.36485581
 C           -1.90587480        1.34173051        3.36712239
 C           -3.00798399        0.62808600        2.74901741
 C           -0.09476652        2.39500945        2.06200091
 C           -1.44505728        2.33484686        2.40878228
 C            0.25775597        2.94783850        0.82942762
 C            2.54761445        2.16451281        1.16964776
 C            1.59819253        3.00381460        0.46967964
 C            3.57694424        0.06105430        0.40788786
 C            3.28711815        1.40402847        0.16895078
 C            2.97552528       -2.19335243       -0.35896286
 C            3.47176741       -0.85616482       -0.63930440
 C            2.25373817       -2.66097030       -1.52619796
 C            0.57272997       -3.60069716       -0.02043802
 C            1.16052015       -3.49299139       -1.34591435
 C           -1.52722670       -2.55537958        0.67008693
 C           -0.86496426       -3.45660975       -0.15857054
 C           -3.23756247       -0.90226437        0.98723206
 C           -2.54279183       -1.75408174        0.14036947
 C           -3.40472437        1.36545441        1.56538011
 C           -2.44094999        2.42812289        1.35609195
 C           -3.61195517        0.41180639        0.49317177
 C           -0.72681105        3.17777155       -0.13784525
 C           -2.01238145        2.67467636        0.05987888
 C           -0.34834472        3.57045852       -1.42040727
 C            1.96544682        2.98661204       -0.93535849
 C            2.80194311        1.81657840       -1.13825756
 C            0.99856726        3.28127103       -1.87841204
 C            2.91602968       -0.44000546       -1.92019217
 C            2.16465872       -1.55184710       -2.46806980
 C            2.42361120        0.84834314       -2.06547135
 C            0.96995933       -1.30153240       -3.13609835
 C            0.07860131       -3.43873106       -2.30829233
 C           -1.17708901       -3.47906188       -1.57428339
 C            0.01002334       -2.31185900       -3.22098331
 C           -2.60098549       -1.51939274       -1.23671718
 C           -2.02876256       -2.43675570       -2.11273404
 C           -1.39198785       -1.95281693       -3.32499332
 C           -3.21843747        0.76706401       -0.79012324
 C           -2.66330464        2.03334589       -0.99625266
 C           -2.95359873       -0.25013432       -1.70656905
 C           -1.24087412        3.28945102       -2.53300270
 C           -2.40255136        2.45340166       -2.29513669
 C            0.86215592        2.39799863       -3.01979234
 C            1.34226198        1.09015086       -2.91830249
 C            0.61348193        0.01293879       -3.45574304
 C           -0.44824830        2.65797408       -3.57798211
 C           -1.71096543       -0.68560105       -3.77584965
 C           -2.69064977        0.08621110       -3.03273773
 C           -2.46464874        1.48100923       -3.37002277
 C           -0.62350668        0.22635494       -4.06953984
 C           -1.20875276        1.55072253       -4.10364564
