   70
C70 / DATE: 7/ 1/2024 / Origin: Program Fullerene / C70 from database
 C            1.33756900       -0.13163021        4.00841385
 C            2.38113509       -0.27044761        3.00403799
 C            2.28779428       -1.60655492        2.46555797
 C            0.48225494       -1.30330291        3.93197126
 C            1.07880968       -2.22238831        2.99552780
 C           -0.86741768       -0.85799144        3.68081093
 C            0.48889034        1.04593871        3.96794360
 C           -0.86237021        0.59742853        3.66863563
 C            0.97368605        2.17297427        3.32655168
 C            2.62926559        0.79770125        2.15372812
 C            2.21633162        2.05749235        2.58357132
 C            2.85835890        0.56353713        0.78700605
 C            2.61482205       -1.84290175        1.13874820
 C            2.86861126       -0.75575509        0.28179980
 C            2.17608375       -3.05385188        0.60945733
 C            0.26342272       -2.92990664        2.11974033
 C            0.90998836       -3.59338052        1.07955366
 C           -1.64252684       -1.52400676        2.73701031
 C           -1.08982552       -2.57325597        1.98186441
 C           -2.76859052       -0.85333171        2.26475130
 C           -1.62566761        1.25910923        2.70581682
 C           -2.73975587        0.59969258        2.20694947
 C            0.07227899        2.93176281        2.48141983
 C           -1.05350979        2.29785353        1.96574282
 C            2.25270898        3.17250214        1.66984957
 C            0.90589535        3.72912043        1.60987133
 C            3.06978885        1.65359056       -0.07454802
 C            2.68063516        2.93466308        0.31336009
 C            3.25763244        1.43260709       -1.43143012
 C            3.03966115       -0.98383937       -1.09615744
 C            3.13474355        0.09527994       -1.95991234
 C            2.25781031       -3.28439089       -0.81061073
 C            2.56502419       -2.16303754       -1.66028682
 C            0.16436834       -4.06228754       -0.07542564
 C            0.98936368       -3.84172463       -1.25048886
 C           -1.85257422       -3.16338376        0.97208953
 C           -1.19022814       -3.79035927       -0.15699782
 C           -3.47872907       -1.33596933        1.09552529
 C           -3.02442788       -2.47613859        0.45178057
 C           -3.29772263        1.00408539        0.93392308
 C           -3.88863326       -0.17688632        0.31808051
 C           -1.43140982        2.50108926        0.62639595
 C           -2.61456622        1.92817777        0.14873039
 C            0.54815694        3.84160226        0.21348488
 C            1.77669403        3.68453487       -0.54115405
 C           -0.60687171        3.22390591       -0.25478988
 C            2.62030520        2.33315746       -2.38028016
 C            1.69220279        3.33071508       -1.87729484
 C            2.21920806        0.14296028       -3.09079202
 C            1.92038002        1.52450159       -3.36440293
 C            1.52788135       -2.06879847       -2.67653198
 C            0.47893626       -2.99717764       -2.31825267
 C            1.20306172       -0.80502687       -3.15443654
 C           -1.70885607       -3.16212475       -1.36143078
 C           -2.95426301       -2.50891080       -1.00315518
 C           -0.82741542       -2.54151471       -2.24810284
 C           -3.95148883       -0.26170496       -1.06613371
 C           -3.36872561       -1.41084021       -1.74307881
 C           -2.91900415        2.01299093       -1.20558340
 C           -3.62401920        0.91543521       -1.84813278
 C           -0.75358702        3.06655346       -1.63564316
 C            0.38458785        3.03492947       -2.44278826
 C            0.53678024        1.92868061       -3.37459013
 C           -1.90051876        2.46102339       -2.13062142
 C           -0.14163413       -0.38632971       -3.14888027
 C           -1.15584335       -1.30170710       -2.79992227
 C           -2.49244942       -0.90622562       -2.78610705
 C           -2.82470800        0.48348923       -2.98400066
 C           -0.46294606        0.96314507       -3.40808808
 C           -1.74484302        1.42485291       -3.13964998
