   70
C70 / DATE: 7/ 1/2024 / Origin: Program Fullerene / C70 from database
 C            1.08242182        0.02786542        5.37617625
 C            0.41055736       -1.15414386        4.85894124
 C            1.39748635       -1.97120873        4.19910420
 C            2.42334117        0.05390851        4.81675900
 C            2.62914819       -1.19562355        4.11709237
 C            2.57483233        1.29331561        4.08138119
 C            0.37455581        1.19558261        4.87880075
 C            1.32907307        2.03677624        4.19752181
 C           -0.73107598       -0.71539670        4.08730942
 C           -0.77570762        0.73303878        4.13017719
 C           -1.03638389       -1.32815150        2.87339312
 C            1.10593144       -2.46342370        2.86246538
 C           -0.12181293       -2.19497898        2.25645431
 C            3.02046604       -1.17202908        2.71916568
 C            2.30122108       -2.25827315        2.07836875
 C            2.92510855        1.25123890        2.66864020
 C            3.15280661        0.03666571        2.02410146
 C            0.98689310        2.51801815        2.87311800
 C            2.10907846        2.24368338        1.99862096
 C           -1.15338791        1.38864694        2.96173137
 C           -0.29306673        2.31749661        2.36331901
 C           -1.95494693       -0.67872280        2.06221996
 C           -2.04077441        0.71618738        2.12732569
 C           -2.36038388       -1.31039495        0.89917374
 C           -0.22207411       -2.40283828        0.87086584
 C           -1.41467125       -2.08206545        0.21633049
 C            2.17211233       -2.20496740        0.70411759
 C            0.95228013       -2.55949973        0.12302310
 C            3.04858059       -0.00687624        0.63213868
 C            2.94406854       -1.26320012        0.04541244
 C            1.84776996        2.08332266        0.64397498
 C            2.52541378        1.09532068       -0.06200712
 C           -0.48118425        2.57905467        1.00869356
 C            0.62400895        2.51758151        0.14976922
 C           -2.55459466        1.40032338        1.02826031
 C           -1.75471538        2.40031399        0.47310299
 C           -3.40401155       -0.71955264        0.20453970
 C           -3.48053228        0.72734231        0.23463841
 C           -3.70007093       -1.16339908       -1.13585956
 C           -1.50024726       -2.23507059       -1.17305427
 C           -2.69236617       -1.92958844       -1.83255893
 C            0.89501995       -2.58092470       -1.27427101
 C           -0.34143745       -2.45645631       -1.92189003
 C            2.99416860       -1.34773198       -1.32907729
 C            2.07364183       -2.26779903       -1.95875044
 C            2.29619393        0.97336711       -1.43802859
 C            2.87856276       -0.11594559       -2.07690530
 C            0.40882146        2.48115872       -1.22488744
 C            1.17566733        1.60510140       -2.01270600
 C           -1.96870109        2.82754207       -0.83270338
 C           -0.80830946        2.96617803       -1.69066169
 C           -3.76381864        1.18694909       -1.11196811
 C           -4.00275646        0.01221120       -1.93715752
 C           -3.04052227        2.25157239       -1.62605959
 C           -2.65040820       -1.43094596       -3.19603570
 C           -3.30666008       -0.13055602       -3.20501221
 C           -0.40006683       -2.35336564       -3.31681432
 C           -1.49269826       -1.62174858       -3.93203895
 C            2.03583041       -1.88311700       -3.35228135
 C            2.45317643       -0.48674876       -3.40783853
 C            0.78788585       -2.00040498       -4.06459609
 C            0.78572133        1.30904206       -3.33681025
 C           -0.90707553       -0.49972543       -4.65630156
 C            1.38369270        0.25697912       -4.02482236
 C            0.52855352       -0.71399664       -4.68637295
 C           -1.21981332        2.69132852       -3.04569353
 C           -2.59485719        2.21615171       -3.00980849
 C           -2.65434720        0.96797392       -3.75482473
 C           -0.44442487        1.75189803       -3.81809400
 C           -1.36618678        0.78573479       -4.40033710
