   70
C70 / DATE: 7/ 1/2024 / Origin: Program Fullerene / C70 from database
 C            1.31438214       -0.09686237        5.22032156
 C            0.46415607       -1.27488014        5.21038696
 C            1.13716238       -2.30263735        4.43703519
 C            2.50800540       -0.40331288        4.45307171
 C            2.45081699       -1.80324350        4.07139258
 C            2.63989366        0.59859604        3.40524564
 C            0.61123200        0.96405440        4.52227628
 C            1.47858216        1.46694231        3.47152901
 C           -0.75866372       -0.93396030        4.50629882
 C           -0.69614134        0.46744870        4.13703404
 C            0.23623567       -2.73170048        3.37713317
 C           -0.95431310       -1.90385745        3.44313905
 C            0.76603957       -3.02737177        2.12499288
 C            2.95757246       -2.15851374        2.83173602
 C            2.15319809       -2.99954273        1.96139055
 C            3.09752894        0.20283578        2.15227276
 C            3.50938408       -1.12060363        1.97726464
 C            2.74088309        0.95964814        1.03171428
 C            0.89068271        1.86718599        2.27786799
 C            1.64810073        1.83169676        1.10657475
 C           -1.17575121        0.82413517        2.88353067
 C           -0.49830432        1.80488374        2.16738186
 C           -1.50995195       -1.45876491        2.24987198
 C           -1.88751719       -0.11969436        2.15122078
 C           -0.05558545       -2.91477660        0.99900947
 C           -1.22817743       -2.15331687        1.07297145
 C            0.46923074       -3.24704866       -0.24358253
 C            2.71542511       -2.86444520        0.62734534
 C            3.56896646       -1.68190402        0.63732869
 C            1.89770271       -3.10964318       -0.46554576
 C            3.23152035        0.58002212       -0.21128080
 C            3.55286945       -0.81648183       -0.44619368
 C            2.61356241        1.09704457       -1.41442506
 C            1.06950555        2.35087123       -0.05773142
 C            1.59407664        2.03176151       -1.31830861
 C           -1.07457844        2.24283898        0.98216760
 C           -0.24269055        2.82022854        0.03273210
 C           -2.47521055        0.30245939        0.96584546
 C           -2.23808839        1.61063807        0.54204827
 C           -1.89384926       -1.75478381       -0.09236883
 C           -2.75349139       -0.65833530        0.00340125
 C           -0.20645444       -2.81004021       -1.44738244
 C           -1.41549491       -2.13797148       -1.35349402
 C            2.07824346       -2.34041573       -1.68569426
 C            2.88946746       -1.21649915       -1.67621604
 C            2.42770344       -0.00777530       -2.33216550
 C            0.79089143       -2.27550527       -2.35126117
 C            1.26270719       -0.02072169       -3.08881187
 C            0.44226580       -1.15737314       -3.09832734
 C            0.80593955        2.25104817       -2.45132542
 C            0.68160946        1.21081359       -3.39031846
 C           -0.83625043        3.39334646       -1.08128499
 C           -0.17694613        3.23104060       -2.35717967
 C           -2.83520264        2.05163860       -0.64150493
 C           -2.24434192        3.12705564       -1.31113183
 C           -3.47537503       -0.26308857       -1.11219343
 C           -3.66434347        1.15968751       -1.32777487
 C           -1.86276994       -1.44644384       -2.48250168
 C           -0.90715315       -0.99036160       -3.40880503
 C           -3.10326685       -0.82343594       -2.39145274
 C           -0.37674344        1.20150385       -4.29549174
 C           -1.22446311        0.02697955       -4.30536020
 C           -1.18881491        3.35997379       -3.38906971
 C           -2.48626544        3.35264369       -2.72752225
 C           -1.22281674        2.36855760       -4.43638884
 C           -3.94321800        1.33400835       -2.74462083
 C           -3.53609743        0.10773309       -3.41658888
 C           -2.59746435        0.46391827       -4.45248347
 C           -3.35347158        2.44954621       -3.45451731
 C           -2.59627511        1.91252661       -4.57322720
