   70
C70 / DATE: 7/ 1/2024 / Origin: Program Fullerene / C70 from database
 C            1.31728914        0.07494120        4.95025804
 C            0.55268080       -1.13752288        4.72265855
 C            1.43978500       -2.10567679        4.12150446
 C            2.58587706       -0.06894973        4.25484270
 C            2.66987255       -1.42059572        3.75257695
 C            2.68643304        1.01477196        3.30366401
 C            0.59691577        1.17607947        4.33214514
 C            1.50050396        1.84710922        3.43103511
 C           -0.65428153       -0.77684532        4.00103112
 C           -0.63011817        0.65946908        3.77962499
 C           -1.10942579       -1.58838535        2.96117172
 C            0.97073464       -2.80931632        2.94897142
 C           -0.36495002       -2.71323387        2.57108569
 C            2.87703125       -1.61998731        2.32631947
 C            1.97778699       -2.67667975        1.90952844
 C            3.16030761        0.76888751        2.01830082
 C            3.05350098       -0.52542200        1.48373861
 C            3.07780152        1.84441253        1.14616154
 C            0.99643927        2.41417124        2.26402316
 C            1.94403544        2.74204472        1.30548843
 C           -1.05735037        1.13077988        2.54453103
 C           -0.29721772        2.07171562        1.83294113
 C           -2.00098371       -1.02272110        2.04694817
 C           -1.97887927        0.36194537        1.84845794
 C           -2.60677854       -1.84142602        1.09722440
 C           -0.68903088       -3.32779731        1.36851763
 C           -1.93811044       -2.99736380        0.71141991
 C            1.54928745       -2.72918636        0.58580618
 C            0.33984261       -3.37619223        0.33911791
 C            2.79036419       -0.68952179        0.11939684
 C            1.98454499       -1.75277348       -0.31739333
 C            3.25120207        1.62561518       -0.27279187
 C            3.13053700        0.33288456       -0.76800077
 C            1.51647899        3.14334773       -0.01477281
 C            2.54774251        2.70960192       -0.93774786
 C           -0.71542640        2.41726875        0.53627000
 C            0.18696158        2.98508779       -0.37550087
 C           -2.58806047        0.90803076        0.72804333
 C           -1.96315684        1.97531176        0.08120115
 C           -3.53677108       -1.28341874        0.22520244
 C           -3.56150168        0.16020672        0.07536326
 C           -3.68397081       -1.86277377       -1.09882910
 C           -1.74658277       -3.27204096       -0.70393239
 C           -0.31707409       -3.20932440       -0.94499108
 C           -2.60338666       -2.68032284       -1.61630180
 C            1.44356231       -1.72615781       -1.60610531
 C            0.18368761       -2.27404387       -1.84090007
 C            2.89781533        0.16319066       -2.12946176
 C            2.00548887       -0.89569061       -2.56211538
 C            2.21724261        2.56154452       -2.27370464
 C            2.61726620        1.33617609       -2.94133157
 C           -0.14190754        3.05374993       -1.73085486
 C            0.85563507        2.85672815       -2.69288708
 C           -2.42634372        2.40489587       -1.15974519
 C           -1.47423449        2.94879137       -2.11010779
 C           -3.91954990        0.46696359       -1.29825922
 C           -3.91786226       -0.78326690       -2.04068561
 C           -3.38455364        1.59627906       -1.89855329
 C           -2.03578282       -1.97453144       -2.75438985
 C           -0.66969254       -1.69175622       -2.78538479
 C           -2.98448404       -0.94537095       -3.14367513
 C            1.16007298       -0.37464532       -3.62293646
 C            1.57899935        0.98781394       -3.89438974
 C            0.57677885        2.03535042       -3.86337959
 C           -0.20100965       -0.66613959       -3.60939465
 C           -1.78362232        2.39594029       -3.41681317
 C           -2.90997653        1.49382987       -3.26855993
 C           -2.51098389        0.19173638       -3.78119374
 C           -0.73800790        1.68716912       -4.12819369
 C           -1.09943706        0.27523831       -4.12128726
