   70
C70 / DATE: 7/ 1/2024 / Origin: Program Fullerene / C70 from database
 C            1.21447185        0.08066466        4.26226796
 C            2.47405770       -0.22245095        3.62453676
 C            2.42158280       -1.61346209        3.20133541
 C            0.38204704       -1.11053791        4.18272367
 C            1.04731208       -2.04633792        3.30287513
 C           -0.95997814       -0.68518362        3.83773802
 C            0.43159414        1.18527352        3.75067785
 C           -0.95882522        0.76795145        3.75577389
 C            0.89582438        1.93695495        2.67448866
 C            2.87340175        0.55950642        2.46909625
 C            1.98987602        1.48646450        1.92187001
 C            3.06369588       -1.69047336        1.91136087
 C            3.55070867       -0.35995026        1.58178676
 C            2.47248455       -2.43485644        0.89590141
 C            0.38177778       -2.45805835        2.15272469
 C            1.10124530       -2.73388385        0.97788705
 C           -1.67382001       -1.39747802        2.88279448
 C           -1.01211175       -2.35848422        2.10600968
 C           -2.82921920       -0.80114152        2.39265743
 C           -1.84891539        1.39632646        2.88503592
 C           -2.90125886        0.65098795        2.35395021
 C           -0.00235292        2.82162200        2.09929188
 C           -1.42955274        2.55233871        2.22765202
 C            0.23924507        3.31774370        0.76083883
 C            2.06695958        1.76113092        0.54920145
 C            1.22385626        2.72537096       -0.02267436
 C            3.66432907       -0.04161863        0.23733269
 C            3.03821086        1.11987921       -0.23431448
 C            3.06964614       -2.32708195       -0.35759280
 C            3.82748091       -1.11862777       -0.62970861
 C            2.29842774       -2.61954510       -1.54984722
 C            0.40314570       -3.09758186       -0.17914850
 C            0.92705236       -2.76860827       -1.42797352
 C           -1.69302232       -3.00241593        1.07900728
 C           -0.94319410       -3.43285127       -0.08601259
 C           -3.46666909       -1.32118696        1.19786095
 C           -2.97115663       -2.47895440        0.62220245
 C           -3.50007960        1.03056269        1.08321260
 C           -3.82565318       -0.18786797        0.35392697
 C           -2.06865358        2.96015058        0.98647035
 C           -1.05428503        3.62117178        0.17562023
 C           -3.01755525        2.13178291        0.38755194
 C           -1.17915044        3.62424337       -1.20293901
 C            1.17234950        2.88939534       -1.41137011
 C           -0.03813380        3.23692152       -2.01424699
 C            3.15123879        1.45300078       -1.58210366
 C            2.10254936        2.23131739       -2.20666113
 C            3.81808923       -0.90007243       -2.05915650
 C            2.82257949       -1.79630839       -2.62791250
 C            3.54124007        0.43369584       -2.54241982
 C            1.60505928        1.46188808       -3.33779923
 C            1.89334478       -0.99069096       -3.39873112
 C            2.47324533        0.32584407       -3.52189894
 C            0.09508213       -2.20556458       -2.39882824
 C            0.53461324       -1.10137257       -3.12280570
 C           -1.78690350       -3.24374043       -1.25169096
 C           -3.02250633       -2.61648430       -0.81836943
 C           -1.26085457       -2.47627346       -2.36450657
 C           -3.62838689       -0.23882827       -1.02827878
 C           -3.23028717       -1.43117013       -1.63043043
 C           -2.18710666       -1.39636897       -2.64642110
 C           -3.21289397        2.18553258       -0.98851947
 C           -2.36511536        3.03928859       -1.80013066
 C           -3.42623554        0.94878927       -1.72499578
 C           -0.52482391        2.40350664       -3.10118489
 C            0.23134076        1.29360473       -3.44714117
 C           -0.31579470        0.00591497       -3.27790906
 C           -1.69784020       -0.15969620       -3.06492297
 C           -1.95414199        2.27649523       -2.96809840
 C           -2.51268754        0.94988750       -2.85691707
