   70
C70 / DATE: 7/ 1/2024 / Origin: Program Fullerene / C70 from database
 C            1.72192795       -0.16023999        4.66411073
 C            0.90038404       -1.34412487        4.49813669
 C            1.24850562       -1.96439356        3.23274386
 C            2.63646016       -0.09918116        3.54034865
 C            2.38033806       -1.23405084        2.68318961
 C            2.51869303        1.21462928        2.95129008
 C            0.84255511        0.99410085        4.57546366
 C            1.30391885        1.81717792        3.48291357
 C           -0.47349053       -0.94204750        4.69668445
 C           -0.51515724        0.50713854        4.53393072
 C           -1.45594896       -1.68593870        4.06484546
 C            0.22007876       -2.36886079        2.37772231
 C           -1.08485065       -2.45049123        2.87518162
 C            0.42720883       -2.31938314        0.99430699
 C            2.42768681       -1.03206427        1.31323208
 C            1.64242694       -1.83961737        0.50262612
 C            2.75030672        1.34953522        1.58877398
 C            2.87486791        0.19301990        0.80513977
 C            2.22251205        2.48273076        0.99360786
 C            0.38194422        2.34524365        2.58003065
 C            0.91663986        2.93870145        1.43877693
 C           -1.41182061        1.05084300        3.61458774
 C           -0.92553373        1.82443090        2.53821803
 C           -2.70141540       -1.01077552        3.76334141
 C           -2.64823957        0.41903583        3.51547873
 C           -2.20479704       -2.39902262        1.94809183
 C           -3.26359162       -1.63554018        2.58361834
 C           -0.65575545       -2.45768023        0.12093546
 C           -1.94688028       -2.21882330        0.59157926
 C           -0.42750123       -2.43626942       -1.25467459
 C            1.84762443       -1.78422563       -0.86785890
 C            0.88788494       -2.33993062       -1.70931690
 C            2.98049135        0.31688627       -0.58530838
 C            2.72437772       -0.81811565       -1.36253621
 C            2.26707875        2.59490547       -0.44298826
 C            2.86871384        1.58492181       -1.17490131
 C            0.09525444        3.10020613        0.25586779
 C            0.97526737        3.08179388       -0.89505086
 C           -1.70523833        2.00507490        1.37831437
 C           -1.10905020        2.43134976        0.19218719
 C           -3.50687427        0.68967889        2.38772588
 C           -3.91046259       -0.59184646        1.82226480
 C           -2.99342546        1.49933074        1.30607769
 C           -2.83236285       -1.47767755       -0.20124399
 C           -3.65126357       -0.52585778        0.40166195
 C           -3.40449616        0.86184543        0.07442478
 C           -1.46996892       -2.02037662       -2.08353916
 C           -2.46770953       -1.23104308       -1.52163402
 C           -1.25964132       -1.92226590       -3.45513189
 C            1.14721652       -2.41821767       -3.07256265
 C            0.04157663       -2.26633052       -3.99568926
 C            2.99637743       -0.78066806       -2.72511318
 C            2.27208381       -1.67585713       -3.61027117
 C            2.71568378        1.66834786       -2.55258394
 C            3.04669115        0.51581573       -3.36235934
 C            0.50240571        2.62357521       -2.12067495
 C            1.46396852        2.21957307       -3.05100623
 C           -1.58712663        1.97605150       -1.04428479
 C           -2.67594217        1.09891159       -1.08040712
 C           -2.63831714        0.06883580       -2.00691491
 C           -0.80106006        2.11359145       -2.20380252
 C           -1.69982540       -0.70712971       -4.11180707
 C           -2.16805358        0.37693080       -3.27088732
 C           -1.21841337        1.47104817       -3.37613666
 C            0.40670358       -1.24759274       -4.96896812
 C            1.79421104       -0.89576891       -4.74241953
 C            2.13574513        0.49286934       -4.49292568
 C            1.08060384        1.46296272       -4.22824814
 C           -0.60117239       -0.20408908       -4.91379578
 C           -0.25102865        1.11440395       -4.40238819
