   70
C70 / DATE: 7/ 1/2024 / Origin: Program Fullerene / C70 from database
 C            1.26921164        0.03379274        4.92318539
 C            2.52681214       -0.19954207        4.24748089
 C            2.51535255       -1.56112623        3.73249445
 C            0.43086214       -1.13960577        4.72450216
 C            1.19237828       -2.11361152        3.96089662
 C           -0.85352143       -0.68837816        4.21095412
 C            0.49313665        1.19859531        4.55329343
 C           -0.86657232        0.75556101        4.30018158
 C            0.90625461        1.99997589        3.41080906
 C            2.91633083        0.66873277        3.14867020
 C            2.04920978        1.66517483        2.68543157
 C            3.04081918       -1.51617360        2.37542238
 C            3.58630609       -0.18461266        2.18468217
 C            2.32152506       -2.11152991        1.33829386
 C            0.56222562       -2.78839522        2.92536992
 C            1.24343781       -2.93425911        1.64797579
 C           -1.38330135       -1.29337516        3.07308226
 C           -0.82888948       -2.48810138        2.62704027
 C           -2.17591697       -0.54871301        2.19376472
 C           -1.36117756        1.50128428        3.16497740
 C           -0.29788228        2.36262619        2.68632228
 C           -2.12471957        0.85147054        2.21257743
 C           -0.21030493        2.59539915        1.31661507
 C            2.15261503        2.08809039        1.35732318
 C            1.05239013        2.69251944        0.73470575
 C            3.73881842        0.28363263        0.89433137
 C            3.19335880        1.58652249        0.57635119
 C            2.47314093       -1.63144845        0.03238335
 C            3.35933667       -0.58379319       -0.20497707
 C            1.55361014       -1.97922829       -0.96421625
 C            0.22106841       -3.16976553        0.64982790
 C           -1.07020573       -2.91320494        1.26061078
 C            0.41773502       -2.73152011       -0.64879337
 C           -2.71492885       -1.17471876        1.06506448
 C           -2.03006522       -2.25722345        0.49949073
 C           -3.56201922       -0.41977981        0.25649726
 C           -2.35341506        1.52916360        1.02446750
 C           -1.32046551        2.31652221        0.50535948
 C           -3.31599810        1.00791783        0.17889622
 C           -1.24841964        2.57174669       -0.87065446
 C            1.13862268        3.07497900       -0.59963491
 C           -0.07840384        3.11656950       -1.39432888
 C            3.09882077        1.64595388       -0.86861906
 C            3.14957080        0.27547457       -1.35731038
 C            2.18987005        2.51878866       -1.43723556
 C            1.63333325       -1.36931177       -2.22144306
 C            2.25375807       -0.12184143       -2.34265865
 C            0.76715927       -1.79884904       -3.22320645
 C           -0.69859096       -2.63910290       -1.47408525
 C           -1.94216473       -2.36364961       -0.89280252
 C           -0.48718389       -2.41159645       -2.82856039
 C           -3.86398582       -0.88647452       -1.08282867
 C           -2.98510649       -1.87189951       -1.67096845
 C           -3.31982093        1.38800418       -1.21674167
 C           -2.22775198        2.07287596       -1.73818414
 C           -3.87486429        0.27152084       -1.96039146
 C           -1.97276400        1.98548599       -3.11035135
 C            0.29699338        2.82528934       -2.76545259
 C            1.58731438        2.16231446       -2.70728557
 C            1.69927805        0.85483469       -3.17689476
 C           -0.66114860        2.32960788       -3.63408449
 C            0.49974886       -0.92260367       -4.34659319
 C            0.89239398        0.46773140       -4.24116982
 C           -0.26961757        1.28113753       -4.56184552
 C           -1.54520985       -1.84733135       -3.64858769
 C           -2.73773172       -1.47038436       -3.04469661
 C           -3.24300114       -0.10957536       -3.20815224
 C           -2.46630968        0.83823232       -3.86274396
 C           -0.92676826       -0.97034046       -4.62787746
 C           -1.40457249        0.39353860       -4.74595635
