   70
C70 / DATE: 7/ 1/2024 / Origin: Program Fullerene / C70 from database
 C            1.61685653       -0.03520428        4.47399373
 C            0.79679038       -1.21910566        4.29180847
 C            1.36740508       -2.00096737        3.20856349
 C            2.64892255       -0.05260019        3.45398048
 C            2.55421216       -1.30533320        2.74003033
 C            2.54336093        1.16673188        2.68514366
 C            0.77681342        1.12281958        4.22845127
 C            1.36933896        1.88650910        3.14660663
 C           -0.58270502       -0.79104131        4.18189291
 C           -0.58892223        0.66085734        4.07002395
 C           -1.42955525       -1.52244953        3.36389003
 C            0.51800061       -2.58048662        2.26368393
 C           -0.86415141       -2.51040218        2.45304157
 C            1.01668168       -2.84746579        0.98447290
 C            2.80536944       -1.31258514        1.37726476
 C            2.28380414       -2.36362687        0.64386755
 C            2.76785113        1.10922802        1.31723177
 C            3.09119321       -0.11328904        0.71073598
 C            2.24074553        2.12487557        0.53314721
 C            0.52533214        2.44862308        2.19364672
 C            1.03307395        2.72392763        0.91998433
 C           -1.37896557        1.25869134        3.09217635
 C           -0.85426331        2.33459537        2.36389337
 C           -2.48536394       -0.82904362        2.64894959
 C           -2.48600817        0.56057662        2.59815046
 C           -1.74895760       -2.60225319        1.30209335
 C           -2.76390408       -1.57264988        1.43132280
 C            0.13293837       -3.23721301       -0.02626878
 C           -1.20501679       -2.85481452        0.05363744
 C            0.64149546       -3.67701224       -1.24305636
 C            2.76708616       -2.54222461       -0.63998410
 C            2.01755110       -3.36604316       -1.56706166
 C            3.31676631       -0.14794090       -0.67670401
 C            3.23839848       -1.36929623       -1.35295067
 C            2.69501596        2.22740508       -0.77002140
 C            3.17592521        1.02487128       -1.42357823
 C            1.92850805        2.98512411       -1.73158936
 C            0.21516970        3.36715520       -0.02156504
 C            0.61006099        3.43986581       -1.35303434
 C           -1.68380885        3.04152832        1.50685358
 C           -1.14038607        3.52653089        0.25028432
 C           -3.30921048        1.16961837        1.65876980
 C           -3.01172946        2.52573063        1.24698360
 C           -3.17999870       -0.87553139        0.30049584
 C           -3.68435768        0.41598203        0.47095489
 C           -1.85723010       -2.36748007       -1.08047078
 C           -2.74755127       -1.29431329       -0.96251460
 C           -0.14255598       -3.46794856       -2.44490980
 C           -1.38362039       -2.72243660       -2.34214982
 C            2.03304291       -2.70443753       -2.86096728
 C            2.63168324       -1.39989113       -2.67440142
 C            0.70118543       -2.77915209       -3.41193742
 C            2.53738043        0.95528090       -2.73093800
 C            1.79624690        2.17841916       -2.93391203
 C            1.98970909       -0.25487351       -3.13603769
 C           -0.32172267        3.00570565       -2.38191818
 C            0.39088461        2.08330311       -3.25271742
 C           -2.10231954        3.22906173       -0.80154603
 C           -3.26874907        2.63175818       -0.17914213
 C           -3.72744829        1.34128212       -0.65072621
 C           -1.63856432        2.73120981       -2.01860585
 C           -3.01023136       -0.50008269       -2.07814447
 C           -3.31325029        0.90545096       -1.89713725
 C           -2.30370737        1.66377882       -2.62900672
 C           -1.36259157       -1.72177613       -3.39380901
 C            0.02672085       -1.54658750       -3.77013139
 C            0.63998806       -0.31262759       -3.53622483
 C           -0.16443217        0.83779400       -3.51466631
 C           -2.15103213       -0.59664123       -3.24369799
 C           -1.54919798        0.71253616       -3.43450049
