   70
C70 / DATE: 7/ 1/2024 / Origin: Program Fullerene / C70 from database
 C            1.13852386       -0.00662970        4.89692479
 C            2.46107773       -0.34139057        4.41157858
 C            2.35894043       -1.61565234        3.71190616
 C            0.29855308       -1.17428083        4.69314732
 C            0.96274188       -2.00978534        3.71167424
 C           -1.03166097       -0.69319688        4.39929397
 C            0.43728251        1.12395532        4.30917341
 C           -0.96053310        0.75678649        4.27663718
 C            0.98631201        1.78643260        3.21033464
 C            3.12206472        0.59336422        3.52391773
 C            2.35406487        1.68688761        2.95430714
 C            3.03700775       -1.47507097        2.43848869
 C            3.66207710       -0.16802329        2.41182170
 C            2.40083663       -1.90247640        1.28252988
 C            0.33946088       -2.27054913        2.48985655
 C            1.12935281       -2.48086435        1.35681651
 C           -1.69670695       -1.18247064        3.20970885
 C           -1.03335172       -2.04327000        2.33360698
 C           -1.74604966        1.13087698        3.11891393
 C           -2.41458982       -0.05953649        2.64227231
 C            0.15203501        2.32530187        2.22247254
 C           -1.20722771        1.98284391        2.17003758
 C            0.73737726        2.91571567        1.09960046
 C            2.82610220        1.86204243        1.59338588
 C            3.50634255        0.63771108        1.20925578
 C            1.97851002        2.44635115        0.66741554
 C            2.80923209       -1.35058077        0.07393004
 C            3.11190775        0.01131674        0.02739718
 C            2.40724801       -1.98755158       -1.08493437
 C            0.52448772       -2.90943882        0.17413562
 C            1.29114830       -2.90911030       -0.99201624
 C           -1.60152671       -2.22535511        1.07218494
 C           -0.86817152       -2.88479875        0.08311017
 C           -2.74339431       -0.13751834        1.29733136
 C           -2.65612683       -1.38466772        0.69961535
 C           -1.87941873        2.09130322        0.95569992
 C           -2.60946086        0.99321888        0.48287025
 C           -0.09252744        3.53531481        0.16997705
 C           -1.46699934        3.07723979        0.07558993
 C            0.40168290        3.71524862       -1.18281151
 C            2.13317865        2.09445160       -0.67155889
 C            2.54817385        0.79760868       -0.98450227
 C            1.48641654        2.86264653       -1.62727948
 C            2.21251903       -1.19751801       -2.28265132
 C            2.11611903        0.18703837       -2.16838901
 C            0.64708967       -2.94379006       -2.29335231
 C            1.27274388       -1.92039143       -3.11951595
 C           -1.48960594       -3.18875723       -1.12767184
 C           -0.72216920       -3.14760298       -2.36165974
 C           -3.24663859       -1.53579615       -0.54179480
 C           -2.78862055       -2.60654155       -1.40052963
 C           -2.90056050        0.86878911       -0.88539702
 C           -3.41579519       -0.34357426       -1.35414101
 C           -1.81789437        2.97733751       -1.32707128
 C           -0.71311557        3.52707949       -2.09079640
 C           -2.44880560        1.83017818       -1.79706371
 C            1.08571138        2.25258937       -2.88038480
 C            1.37646790        0.90915566       -3.11237427
 C           -0.23041531        2.77708720       -3.23179633
 C            0.51422606       -1.21117859       -4.03644537
 C            0.66936867        0.23197690       -4.10832785
 C           -1.51000944       -2.44471970       -3.36381225
 C           -2.79298345       -2.11493390       -2.76665232
 C           -3.23283397       -0.72787423       -2.74329431
 C           -0.89905149       -1.51910018       -4.20276227
 C           -2.31283543        1.50459861       -3.15038354
 C           -1.12544145        1.93892782       -3.87699735
 C           -0.59347500        0.78118970       -4.56582725
 C           -2.65916671        0.17546296       -3.62368327
 C           -1.58922131       -0.27403244       -4.50104215
