   70
C70 / DATE: 7/ 1/2024 / Origin: Program Fullerene / C70 from database
 C            1.28923246        0.03429094        4.37354931
 C            2.59020519       -0.20861201        3.80002716
 C            2.60480841       -1.57332587        3.30144853
 C            0.46819112       -1.14431925        4.13776475
 C            1.24487557       -2.08163381        3.35609123
 C           -0.80340105       -0.69843694        3.61297227
 C            0.54031767        1.18542643        3.91524608
 C           -0.82060420        0.75092828        3.64607066
 C            1.12286645        2.11435845        3.05297102
 C            3.04408091        0.65596407        2.72992806
 C            2.33563324        1.81367949        2.40506180
 C            3.29040413       -1.57529358        2.02206223
 C            3.53307868       -0.18946445        1.65003827
 C            2.85280515       -2.45702248        1.04944126
 C            0.69231990       -2.63218087        2.20158162
 C            1.56040055       -3.10596242        1.22374145
 C           -1.33974724       -1.32748483        2.50530803
 C           -0.63180916       -2.34431200        1.85053254
 C           -2.34785743       -0.66469020        1.82156970
 C           -1.55550926        1.44957946        2.68779376
 C           -2.29007836        0.73163591        1.72572021
 C            0.26684662        3.07317515        2.51307320
 C           -1.14952087        2.75281924        2.41847225
 C            0.63426119        3.79901908        1.31097138
 C            2.64381910        2.41661107        1.18713733
 C            1.76074829        3.41167038        0.60966235
 C            3.34447469        0.23077477        0.33148123
 C            3.16037826        1.58946086        0.10721024
 C            2.92422726       -2.04892692       -0.33666687
 C            2.95368656       -0.68989463       -0.64831064
 C            1.04911311       -3.41408488       -0.10029807
 C            2.02620529       -2.92651672       -1.06055255
 C           -1.16661459       -2.87670888        0.67298524
 C           -0.30665520       -3.25061219       -0.36850978
 C           -3.08699335       -1.39114965        0.90052613
 C           -2.50885152       -2.62474301        0.40029241
 C           -3.65283336       -0.69692304       -0.23373976
 C           -2.74999668        1.36066818        0.55485695
 C           -3.18419980        0.58075221       -0.51451047
 C           -1.68863454        3.44730241        1.27381915
 C           -0.58396745        4.09134394        0.58061670
 C           -2.44126186        2.68878356        0.30124996
 C           -0.67374582        3.72712792       -0.82177532
 C           -1.93880579        3.03220295       -1.01237583
 C            1.67467716        3.15685392       -0.82292480
 C            2.55665785        2.03947108       -1.12989292
 C            0.45759590        3.27461114       -1.49837316
 C            2.39061086       -0.25134092       -1.85592400
 C            2.16165171        1.11009283       -2.08070955
 C            1.58862357       -2.53409363       -2.31062066
 C            1.90362519       -1.19162175       -2.76665673
 C           -0.71844192       -3.14048115       -1.70263701
 C            0.21241073       -2.80181744       -2.68441751
 C           -3.01898718       -2.83420216       -0.93968507
 C           -3.81892365       -1.67057509       -1.29279604
 C           -2.07235000       -3.05822189       -2.00940392
 C           -3.47736964       -1.28921336       -2.64285308
 C           -2.49097117       -2.23780931       -3.13435164
 C           -2.81914396        0.94481226       -1.82230442
 C           -2.03969534        2.08784746       -2.02720177
 C           -2.95395293        0.04111747       -2.87718821
 C            0.27720618        2.56070202       -2.67949561
 C            1.22185215        1.51147573       -3.02619066
 C           -1.05048198        2.06950517       -3.00818071
 C            0.87880723       -0.80924304       -3.72452797
 C           -0.14888886       -1.84018538       -3.71339179
 C           -1.48449969       -1.48968140       -3.87011705
 C           -1.86899473       -0.08622844       -3.83250140
 C            0.51721226        0.52496412       -3.82666904
 C           -0.89012198        0.89798565       -3.85552046
