   70
C70 / DATE: 7/ 1/2024 / Origin: Program Fullerene / C70 from database
 C            1.31912963       -0.13788412        4.31457763
 C            2.57764737       -0.40124917        3.65681004
 C            2.48777140       -1.70085872        3.01056964
 C            0.46459723       -1.30017580        4.12364142
 C            1.14752785       -2.21408857        3.22685622
 C           -0.85465980       -0.82105131        3.74917741
 C            0.55835696        1.03263899        3.91807954
 C           -0.83432779        0.62582646        3.87288869
 C            1.05083856        1.89096671        2.93033856
 C            3.04499906        0.54178870        2.66594104
 C            2.37283899        1.74410943        2.46532667
 C            2.96099740       -1.55600277        1.64172109
 C            3.47177679       -0.20883794        1.49712312
 C            2.20187607       -2.10122501        0.61493196
 C            0.45130933       -2.71556518        2.13498145
 C            1.14879047       -2.94699736        0.94979787
 C           -1.49667755       -1.40549932        2.65809048
 C           -0.93211957       -2.54109092        2.07870590
 C           -2.45628683       -0.67486515        1.94812995
 C           -1.71738473        1.36686310        3.11065154
 C           -2.65939304        0.67090750        2.25168666
 C            0.15062977        2.75035873        2.27873402
 C           -1.21890789        2.51118638        2.36658157
 C            0.58928660        3.58535023        1.25739112
 C            2.81380003        2.50887849        1.39229632
 C            1.98582215        3.58220876        0.89614733
 C            3.40054522        0.41671926        0.25833860
 C            3.37944020        1.81235185        0.24632111
 C            2.22018935       -1.50333229       -0.64827864
 C            2.89199549       -0.28764553       -0.83854798
 C            1.46600349       -2.07105961       -1.68601364
 C            0.51754940       -3.65202693       -0.06191573
 C            0.72551388       -3.22784286       -1.43504350
 C           -1.64137340       -3.21198754        1.09286877
 C           -0.89135950       -3.95733649        0.09889945
 C           -3.02371863       -1.20992011        0.78626707
 C           -2.71319014       -2.51204788        0.40797390
 C           -3.60587296       -0.36257204       -0.15566702
 C           -3.03144867        1.59167637        1.19406714
 C           -2.02997803        2.64491284        1.16626276
 C           -3.49832483        1.07879962       -0.00180487
 C           -0.19323817        3.66350453        0.03103542
 C           -1.40726193        2.98884959       -0.03360822
 C            2.07512281        3.58742935       -0.55445877
 C            2.98472636        2.52809365       -0.95474670
 C            0.72319178        3.58753823       -1.08909147
 C            2.80445815        0.35830824       -2.06659167
 C            2.69139928        1.80632602       -2.09991923
 C            1.25829902       -1.36943353       -2.87798618
 C            1.91803210       -0.16380401       -3.09039509
 C            0.15689348       -1.67459057       -3.67784382
 C           -0.51334461       -3.46172795       -2.16066705
 C           -1.53894092       -3.77755145       -1.18602109
 C           -2.63772534       -2.84567849       -1.00835027
 C           -0.84252367       -2.61018908       -3.20027700
 C           -3.46128302       -0.66255461       -1.57252295
 C           -2.83515897       -1.84748528       -1.95967833
 C           -2.11120192       -1.89395339       -3.15290683
 C           -2.96301198        1.60618421       -1.24250620
 C           -1.77880162        2.34180813       -1.21735443
 C           -3.16399910        0.59047529       -2.25783632
 C            0.42126913        2.74649435       -2.15216958
 C            1.46779060        2.11095613       -2.81990256
 C            1.18550055        0.96343591       -3.65722283
 C           -0.87875065        2.25445323       -2.28953638
 C           -0.55593751       -0.59240303       -4.33261546
 C           -1.95367746       -0.68676181       -3.94563518
 C           -2.34460975        0.58580840       -3.37256923
 C           -0.11460053        0.76717366       -4.09312489
 C           -1.18682545        1.46491349       -3.40040231
