   70
C70 / DATE: 7/ 1/2024 / Origin: Program Fullerene / C70 from database
 C            1.16709936       -0.02862082        4.44199156
 C            2.49691946       -0.33606966        3.97466495
 C            2.50464503       -1.73562442        3.59030371
 C            0.33599591       -1.20813412        4.22615342
 C            1.12027303       -2.15696122        3.47516203
 C           -0.91398185       -0.74699293        3.66731516
 C            0.46315683        1.08628148        3.84435342
 C           -0.92806570        0.69132726        3.85087509
 C            0.97405501        1.70423495        2.69941072
 C            3.03026539        0.41746996        2.85961761
 C            2.29462188        1.45646787        2.28997949
 C            3.35556967       -1.86886728        2.42435917
 C            3.71133357       -0.52281736        1.98307448
 C            2.99445176       -2.80546803        1.47169023
 C            0.66390344       -2.60686146        2.23827170
 C            1.59452821       -3.21100285        1.39579309
 C           -1.36538278       -1.26326297        2.45250201
 C           -0.53851386       -2.11171090        1.70071697
 C           -2.41072122       -0.58802756        1.81839257
 C           -1.80847590        1.41842915        3.08042193
 C           -2.76245066        0.68038007        2.28317070
 C            0.08264893        2.37983991        1.85126851
 C           -1.26629629        2.43212074        2.19207510
 C            0.47802580        2.76007783        0.56728895
 C            2.73148889        1.94209388        1.06489812
 C            1.82560954        2.70592190        0.23120931
 C            3.79833292       -0.22965113        0.61881539
 C            3.50311695        1.06384979        0.19451473
 C            3.46857483       -2.61288345        0.11916689
 C            3.79070267       -1.26628539       -0.31564265
 C            1.26962304       -3.42154954        0.00253414
 C            2.45965717       -3.13985408       -0.77833400
 C           -0.88964254       -2.41727229        0.37848736
 C            0.05700643       -2.96945670       -0.48912294
 C           -2.83270457       -0.98492558        0.54855820
 C           -2.08909658       -1.93331847       -0.15862237
 C           -3.81304527       -0.22976540       -0.10559261
 C           -3.30554029        1.64403643        1.35447072
 C           -2.25742322        2.63857488        1.15033977
 C           -3.99280973        1.16813092        0.25459936
 C           -0.47505253        2.99015827       -0.43540809
 C           -1.84255529        2.93126259       -0.14549420
 C           -0.05980159        3.10148861       -1.76282470
 C            2.21223105        2.47575864       -1.14953519
 C            3.04693642        1.28710225       -1.16789503
 C            1.26212472        2.63916839       -2.13975576
 C            3.16249050       -1.06395197       -1.61575692
 C            2.33622224       -2.22423827       -1.89787754
 C            2.68512939        0.19782886       -1.95848742
 C           -0.01335131       -2.65643842       -1.84016683
 C            1.07449065       -2.01147382       -2.43266592
 C           -2.36637376       -2.17224922       -1.50853951
 C           -1.26876139       -2.50123556       -2.40004320
 C           -3.97840531       -0.33171242       -1.54510356
 C           -3.27735642       -1.30477839       -2.23646738
 C           -3.92846745        1.94324794       -0.96739640
 C           -2.76691643        2.78758454       -1.18250712
 C           -4.02467723        1.02014597       -2.08244429
 C           -0.96090652        2.70883592       -2.83005901
 C           -2.30850911        2.55951542       -2.54271168
 C           -3.04606649        1.42429222       -3.07958725
 C            1.07346761        1.57132862       -3.10407625
 C            1.59153982        0.30646894       -2.82602759
 C            0.85066113       -0.83741259       -3.14753125
 C           -0.27300607        1.70834790       -3.63428379
 C           -1.39295559       -1.67887762       -3.58797098
 C           -2.64666939       -0.95495040       -3.50056020
 C           -2.37725891        0.44205666       -3.79999592
 C           -0.33502465       -0.72657892       -3.86967134
 C           -0.95063333        0.57545245       -4.05828767
