   70
C70 / DATE: 7/ 1/2024 / Origin: Program Fullerene / C70 from database
 C            1.49523521       -0.16214851        4.96692251
 C            0.64079122       -1.33440901        4.98780762
 C            1.16312873       -2.28454343        4.02038913
 C            2.54160329       -0.39233867        3.98667206
 C            2.32689544       -1.69848243        3.39102223
 C            2.58235312        0.75931799        3.10003490
 C            0.70122836        0.95635306        4.49203007
 C            1.44491193        1.60085257        3.42996073
 C           -0.67604837       -0.93118184        4.52708610
 C           -0.63137359        0.47585128        4.18507799
 C            0.06659640       -2.69078228        3.16661528
 C           -1.07944624       -1.86119366        3.49484013
 C            0.31749763       -2.92758389        1.81825079
 C            2.45299829       -1.80263583        2.01198138
 C            1.58430750       -2.63354245        1.29398517
 C            2.86656968        0.54289003        1.75119626
 C            3.09288104       -0.76916349        1.33535207
 C            2.41543181        1.47846591        0.80960799
 C            0.74031324        2.15196071        2.37332501
 C            1.44248656        2.40081823        1.20340192
 C           -1.21277468        0.87995248        2.98629250
 C           -0.63946113        1.93567925        2.28012067
 C           -1.83734209       -1.38678938        2.43437717
 C           -2.03836473       -0.00656953        2.29557798
 C           -0.77558912       -2.93916666        0.95484840
 C           -1.89969191       -2.17912192        1.29418593
 C           -0.56709057       -3.33448454       -0.35985467
 C            1.81179353       -2.79869467       -0.07822774
 C            0.78007799       -3.27151287       -0.89352359
 C            3.46179233       -0.99137868        0.02171739
 C            2.90170972       -2.14688125       -0.65546147
 C            2.64720965        1.23789535       -0.55179354
 C            3.39573020        0.11980201       -0.90594936
 C            1.91930079        1.93632648       -1.52801456
 C            0.82452643        3.19800715        0.25748313
 C            1.17653571        3.04644778       -1.13805455
 C           -1.30947658        2.43192470        1.16121909
 C           -0.61830050        3.31607244        0.33320134
 C           -2.71390263        0.45805474        1.16488546
 C           -2.40616531        1.72484926        0.65263017
 C           -2.83324972       -1.83415135        0.32828208
 C           -3.34466254       -0.47761377        0.34613095
 C           -1.48545441       -2.91389896       -1.40471120
 C           -2.62592996       -2.21369771       -1.05839250
 C            0.68011066       -2.84566719       -2.28505115
 C           -0.69774093       -2.46347158       -2.53858129
 C            2.89906093       -1.84780338       -2.07620511
 C            3.24652212       -0.44240464       -2.22819933
 C            1.69863730       -2.09965461       -2.84974854
 C            1.75853905        1.41001666       -2.82182792
 C            2.28543058        0.15865569       -3.12091837
 C            1.36900936       -0.87956949       -3.56368103
 C            0.68114553        1.82173966       -3.60515890
 C            0.02323173        3.46234633       -1.91725158
 C           -1.10610661        3.59932353       -1.00181543
 C           -0.16152765        2.92357851       -3.18085229
 C           -3.03080166        2.16609348       -0.51771680
 C           -2.36414418        3.14184159       -1.36580809
 C           -3.69821890       -0.12884930       -1.01546573
 C           -3.05313797       -1.10047818       -1.88648505
 C           -3.69359343        1.20472758       -1.38630200
 C           -0.98419686       -1.23458975       -3.13754167
 C            0.03999962       -0.52328930       -3.78505490
 C           -0.18065942        0.79490481       -4.16861543
 C           -2.24535921       -0.65096470       -2.93115322
 C           -1.50637069        2.66164651       -3.66528719
 C           -2.62418066        2.78998403       -2.74980695
 C           -3.34557769        1.52991851       -2.75765905
 C           -1.52860850        1.31092988       -4.20699938
 C           -2.56104426        0.57148073       -3.51934196
