   70
C70 / DATE: 7/ 1/2024 / Origin: Program Fullerene / C70 from database
 C            1.43600805        0.14132884        5.04700721
 C            0.66868214       -1.08839232        5.08180251
 C            1.50297459       -2.13878520        4.52890934
 C            2.61341437       -0.09725553        4.22610752
 C            2.67709006       -1.51011401        3.93807695
 C            2.56397809        0.82716288        3.11380581
 C            0.62969815        1.14660522        4.37572195
 C            1.43392507        1.71161433        3.31919447
 C           -0.62358042       -0.82585158        4.47096771
 C           -0.63510118        0.55200802        4.00115083
 C           -1.20692164       -1.80343221        3.68006031
 C            0.93626961       -3.02663832        3.52912306
 C           -0.42588760       -2.96059665        3.25047399
 C            2.74807818       -1.93402158        2.55113750
 C            1.88382082       -3.09141629        2.42785199
 C            2.80183640        0.38229274        1.81211962
 C            2.76516628       -0.98926997        1.51910978
 C            2.50870633        1.27631856        0.78706844
 C            0.79643083        2.16341159        2.17690951
 C            1.58185018        2.28942985        1.04604724
 C           -1.14969391        0.84559497        2.73583654
 C           -0.55033036        1.85642101        1.97381416
 C           -2.03047731       -1.39340452        2.55951944
 C           -1.99188274       -0.07316067        2.10594902
 C           -0.89947579       -3.34510331        1.93020811
 C           -2.00048865       -2.46475576        1.58263743
 C            1.43468142       -3.44083041        1.16440505
 C            0.01701810       -3.69336525        0.94901200
 C            2.44721981       -1.40817014        0.21739839
 C            1.90785035       -2.67667654        0.02339343
 C            2.67209131        0.85507484       -0.52673177
 C            2.37123268       -0.47208863       -0.82033652
 C            2.55447512        1.81690425       -1.52038403
 C            1.04210143        2.97387172       -0.02971401
 C            1.81351865        3.01373988       -1.18342846
 C           -1.10016674        2.19204302        0.73417117
 C           -0.35330959        2.99968369       -0.12803023
 C           -2.44391715        0.18991592        0.81113934
 C           -2.13227571        1.41133425        0.20633815
 C           -2.22475473       -2.12533416        0.25687187
 C           -2.81720668       -0.89144666        0.01200044
 C           -0.27513941       -3.36082863       -0.43422199
 C            0.94711029       -2.87329264       -1.03951959
 C           -1.46117935       -2.71014496       -0.76093406
 C            1.65225803       -0.78077943       -1.98906145
 C            0.82538471       -1.90694208       -2.02180768
 C            2.12309186        1.41924907       -2.84430596
 C            1.53870174        0.16910945       -3.01238331
 C            1.25656557        3.55601133       -2.40196244
 C            1.50770476        2.58681528       -3.45716395
 C           -0.96499214        3.48320052       -1.27982066
 C           -0.15151319        3.88122935       -2.41650861
 C           -2.62831046        1.69032575       -1.07456473
 C           -2.13029685        2.78336434       -1.78735644
 C           -3.29494419       -0.65516033       -1.26404925
 C           -3.34924718        0.70813173       -1.74879291
 C           -1.56600329       -2.16493715       -2.04290649
 C           -0.37791628       -1.83545759       -2.71516190
 C           -2.73223247       -1.45874627       -2.32688145
 C            0.58047252       -0.00994276       -4.01633036
 C           -0.40629974       -1.06631733       -3.87199773
 C            0.27963632        2.42142536       -4.20909706
 C           -0.72647295        3.28563195       -3.60807312
 C           -2.01437561        2.72028388       -3.24204385
 C           -0.08964024        1.14450946       -4.60711963
 C           -3.28756762        0.63864665       -3.19936999
 C           -2.84413873       -0.70146975       -3.55576445
 C           -1.67058710       -0.57631363       -4.38740337
 C           -2.45748062        1.58842440       -3.91234096
 C           -1.50523622        0.82932819       -4.70977185
