   70
C70 / DATE: 7/ 1/2024 / Origin: Program Fullerene / C70 from database
 C            1.76764553       -0.13991832        5.04019330
 C            0.91222799       -1.29539653        5.24412210
 C            1.30576890       -2.31111248        4.28679097
 C            2.64680297       -0.42663528        3.92034511
 C            2.36007117       -1.76464082        3.44650547
 C            2.53069970        0.66511874        2.97768683
 C            0.92363529        0.97478783        4.64948592
 C            1.48598550        1.55991709        3.44387289
 C           -0.44921787       -0.90668302        4.92000472
 C           -0.44872844        0.50864066        4.59558643
 C            0.09964855       -2.79521696        3.63931147
 C           -0.95833702       -1.83681536        3.92406154
 C            0.21854701       -3.27490663        2.34692923
 C            2.28340043       -1.98464982        2.07305943
 C            1.45216478       -3.00473427        1.62607838
 C            2.56785765        0.38009441        1.62241962
 C            2.60237047       -0.94833274        1.18745443
 C            2.08396312        1.34370570        0.74688483
 C            0.60791026        2.08449531        2.49623699
 C            1.03159256        2.16234242        1.16469142
 C           -1.22487078        0.93189304        3.52599230
 C           -0.75949285        1.99712803        2.75474887
 C           -1.72103005       -1.32242131        2.87427211
 C           -2.09736544        0.01827270        2.93302106
 C           -0.86036475       -3.03020779        1.40899186
 C           -1.74035539       -1.98046225        1.63738681
 C            1.14300495       -3.09096979        0.21498348
 C           -0.29698393       -3.18984031        0.08572550
 C            2.53804345       -1.17832053       -0.18942137
 C            1.80651315       -2.26697969       -0.68087446
 C            2.31509793        1.16495114       -0.60940425
 C            2.74399633       -0.09312101       -1.04006330
 C            1.71003260        2.03635515       -1.51162836
 C            0.18222321        2.73363768        0.21068635
 C            0.51219527        2.65460265       -1.14754976
 C           -1.64160681        2.57446836        1.85436546
 C           -1.13609902        3.02019396        0.56662534
 C           -2.99634649        0.49513514        1.99065728
 C           -2.90151192        1.89368344        1.61825832
 C           -2.37548043       -1.37952493        0.54506462
 C           -3.18472565       -0.27035208        0.77042156
 C           -0.88129175       -2.53296645       -0.98545361
 C           -1.96545337       -1.67558722       -0.76410197
 C            1.28018138       -2.17867054       -1.97044298
 C           -0.10267008       -2.34528827       -2.12531329
 C            2.81203871       -0.35124054       -2.40268097
 C            2.00073917       -1.44138515       -2.90445598
 C            2.07900816        1.97536127       -2.85132391
 C            2.69595276        0.75609051       -3.33022898
 C            1.13682795        2.41220481       -3.86231108
 C           -0.51051090        2.79159828       -2.09408450
 C           -0.21404331        2.73095807       -3.45070102
 C           -2.18788477        2.81506927       -0.41402440
 C           -3.21487686        2.00349510        0.20855459
 C           -3.42947019        0.66702660       -0.31235998
 C           -1.81109341        2.49751246       -1.70739577
 C           -2.44049913       -0.90042966       -1.83031465
 C           -2.92967461        0.38137948       -1.57466357
 C           -2.46638441        1.44711418       -2.34894492
 C           -0.74173857       -1.90204091       -3.27522650
 C           -2.00044883       -1.19574473       -3.12078208
 C            1.36988499       -1.00249060       -4.13610592
 C            1.93662378        0.29422419       -4.47934555
 C            1.06348651        1.37950932       -4.88646280
 C            0.01727893       -1.25371542       -4.33015100
 C           -1.12507613        1.99739459       -4.31363420
 C           -2.18636968        1.22122354       -3.69083050
 C           -2.04713919       -0.15271889       -4.13244138
 C           -0.33675346        1.10054152       -5.14179008
 C           -0.83952565       -0.24660636       -4.93696346
