   70
C70 / DATE: 7/ 1/2024 / Origin: Program Fullerene / C70 from database
 C            1.62059650        0.08552684        4.61293049
 C            0.79931850       -1.10881121        4.63027528
 C            1.37000860       -2.05610955        3.69203306
 C            2.60541832       -0.06537841        3.55270052
 C            2.43617932       -1.37122491        2.96986399
 C            2.49616987        1.07875952        2.68229020
 C            0.76069682        1.19679574        4.25235080
 C            1.41121692        1.90399359        3.17866969
 C           -0.57980755       -0.70521636        4.43923675
 C           -0.56851910        0.68289396        4.00189748
 C           -1.42490344       -1.59184444        3.79802848
 C            0.51059004       -2.88996032        2.97924090
 C           -0.86365999       -2.81070489        3.22913503
 C            0.96803600       -3.40852346        1.76773783
 C            2.50303113       -1.51700714        1.58860062
 C            2.05394959       -2.72410702        1.08208371
 C            2.58715444        0.90700084        1.29949844
 C            2.53438659       -0.38480553        0.74906687
 C            2.17881048        1.98184200        0.51168219
 C            0.62817447        2.51196914        2.21922921
 C            1.29164217        2.90593721        1.07737501
 C           -1.20362023        1.04279061        2.80934961
 C           -0.71072013        2.12451547        2.06984854
 C           -2.35700246       -1.07203547        2.81759621
 C           -2.08556708        0.14807251        2.20071523
 C           -1.81324873       -3.27482839        2.23221631
 C           -2.76479630       -2.19720860        2.00431106
 C            0.03374392       -3.88460493        0.75678160
 C           -1.32709467       -3.71725077        0.94009454
 C            1.85317716       -2.87030899       -0.33578419
 C            0.60658498       -3.58845919       -0.54143133
 C            2.34604518       -0.53469482       -0.64101744
 C            2.14656700       -1.81350414       -1.18439431
 C            2.26702131        1.87819293       -0.87389358
 C            2.22308743        0.60523783       -1.46063539
 C            2.00295258        3.01896866       -1.63197320
 C            0.60670148        3.77460920        0.25558903
 C            1.13099784        4.02417812       -1.06424335
 C           -1.38030000        2.51669698        0.90116006
 C           -0.82305750        3.56064032        0.15101427
 C           -2.47040461        0.35960042        0.87267705
 C           -2.25798219        1.61287504        0.28905814
 C           -2.87874506       -2.00558563        0.57740370
 C           -2.09650363       -3.03105097       -0.08500783
 C           -2.83146213       -0.72282017        0.05562719
 C           -0.20948276       -3.18029821       -1.58984485
 C           -1.50039858       -2.70941195       -1.30461232
 C            1.68286189       -1.93753737       -2.48661315
 C            0.44961501       -2.68197338       -2.70779651
 C            1.95828848        0.46695837       -2.83591024
 C            1.67102156       -0.78699305       -3.35554215
 C            1.63724729        2.88923017       -3.02193262
 C            1.53127675        1.56445521       -3.57888231
 C           -0.00033531        4.18887167       -1.95714027
 C           -1.18890212        3.75118364       -1.24238607
 C            0.35131403        3.55122360       -3.20962637
 C           -2.66393664        1.81103633       -1.03295592
 C           -2.06220907        2.85694760       -1.83995502
 C           -2.68495162       -0.60378094       -1.31988298
 C           -2.00653758       -1.61166574       -2.01480461
 C           -2.85380379        0.65188317       -1.88424828
 C           -0.31408692       -1.98286782       -3.71754368
 C            0.52741402       -0.92503539       -4.24354254
 C           -1.56818079       -1.38852289       -3.31688555
 C            0.25920698        1.48702694       -4.28099547
 C           -0.55828440        2.58034040       -3.78895665
 C           -1.76633154        2.29962405       -3.15651726
 C           -2.29799271        0.94661821       -3.19353658
 C           -0.31206301        0.23665293       -4.46869206
 C           -1.61561296       -0.04901721       -3.88018504
