   70
C70 / DATE: 7/ 1/2024 / Origin: Program Fullerene / C70 from database
 C            1.01720168       -0.06961812        4.96332276
 C            2.30683766       -0.25670306        4.32855912
 C            2.26307885       -1.52963190        3.62498545
 C            0.19991457       -1.22764734        4.63314951
 C            0.88659542       -1.96179674        3.58604861
 C           -1.14171434       -0.75774304        4.38101953
 C            0.24001203        1.11845455        4.65549525
 C           -1.13258423        0.69647911        4.45745244
 C            0.76950795        2.09819451        3.82286640
 C            2.79271486        0.74559289        3.39500084
 C            2.08047108        1.92033294        3.20551290
 C            2.94239696       -1.35614524        2.36502007
 C            3.31408832        0.04412397        2.23748299
 C            2.44081011       -1.98394980        1.23390962
 C            0.28019444       -2.13118752        2.33850336
 C            1.08108158       -2.33396599        1.19899390
 C           -1.77267148       -1.11381147        3.12850821
 C           -1.08865506       -1.87574110        2.18379021
 C           -1.87330436        1.19884199        3.31005611
 C           -2.48742327        0.05563709        2.66488300
 C           -0.08760093        2.75152672        2.84416062
 C           -1.32511359        2.19518695        2.50677708
 C            2.02203514        2.50095407        1.87430068
 C            0.78334457        3.25426657        1.79484115
 C            3.24327874        0.61991200        0.96782473
 C            2.44952330        1.75916906        0.77039996
 C            3.05878286       -1.62727309        0.04958569
 C            3.46411623       -0.23786058       -0.10285526
 C            2.49146117       -2.05524116       -1.20502659
 C            0.45936934       -2.60753916       -0.03206408
 C            1.19438787       -2.55092132       -1.22782351
 C           -1.63429959       -1.94251371        0.90809770
 C           -0.93483806       -2.61844047       -0.08041767
 C           -2.76589501        0.13866157        1.31117990
 C           -2.60256543       -1.00531494        0.53498914
 C           -1.81235171        2.34549508        1.20485420
 C           -2.68110478        1.37721190        0.68528826
 C            0.24152634        3.51042868        0.54996204
 C           -1.16311342        3.22554815        0.33976133
 C            1.91485212        2.04578443       -0.49729208
 C            0.94238184        3.03265112       -0.62812275
 C            3.08149786        0.16812971       -1.43584205
 C            2.87469120       -1.05758881       -2.18396427
 C            2.17614089        1.21021590       -1.58515017
 C            2.14733627       -0.99250776       -3.35454876
 C            0.53504051       -2.61000154       -2.45992965
 C            1.12101542       -1.99285339       -3.57167285
 C           -1.58523059       -2.87003711       -1.28023642
 C           -0.80309949       -2.99152292       -2.49185333
 C           -3.06809930       -0.99443339       -0.77814585
 C           -2.76129676       -2.07764190       -1.59696034
 C           -3.10608631        1.46217451       -0.63734076
 C           -3.41344741        0.22988808       -1.35365484
 C           -1.35307890        3.10127169       -1.09280773
 C           -0.03943971        2.91741498       -1.69180626
 C           -2.41055728        2.34371194       -1.56132896
 C            1.33236139        1.22167757       -2.70400172
 C            1.54104164        0.27754077       -3.70863499
 C            0.13209942        1.94134106       -2.66840447
 C            0.29464124       -1.46865947       -4.64461727
 C            0.46875739       -0.02238886       -4.63877517
 C           -1.65993663       -2.59707190       -3.60087578
 C           -2.82358497       -1.92968738       -3.04086700
 C           -1.12468985       -1.74864742       -4.64483596
 C           -3.14016382        0.47644888       -2.76129469
 C           -2.25508041        1.62666747       -2.81307725
 C           -0.98815560        1.48270587       -3.37337249
 C           -0.83027713        0.57309554       -4.41388644
 C           -2.89418403       -0.59536743       -3.60853054
 C           -1.82494485       -0.47528227       -4.58656480
