   70
C70 / DATE: 7/ 1/2024 / Origin: Program Fullerene / C70 from database
 C            1.21198179        0.19972941        5.09775761
 C            0.42538242       -1.01837741        5.02530571
 C            1.35361197       -2.09581152        4.77107671
 C            2.48264504       -0.06595219        4.44440259
 C            2.60226759       -1.49747799        4.30817546
 C            2.54272299        0.75306131        3.24763617
 C            0.52570222        1.20512964        4.31277845
 C            1.44862924        1.69996177        3.30804268
 C           -0.66662415       -0.78999484        4.08652221
 C           -0.72287762        0.63701536        3.84076991
 C           -0.87550487       -1.66707761        3.01610578
 C            0.97483209       -3.10235136        3.80520432
 C           -0.21243582       -2.89133339        2.98901034
 C            2.88384546       -2.04740262        2.99745791
 C            2.09165803       -3.24830350        2.88887592
 C            2.83821120        0.18131482        2.01199463
 C            2.95635697       -1.21408644        1.87893452
 C            2.59589315        0.95192121        0.87167421
 C            0.89970241        2.12525231        2.10583605
 C            1.63980212        1.97391188        0.93217188
 C           -1.17318689        1.06479634        2.60519628
 C           -0.48615885        2.10601457        1.99250415
 C           -1.48201824       -1.18698907        1.84392409
 C           -1.83551300        0.16226288        1.77799899
 C           -1.45779689       -1.95318952        0.66687564
 C            0.08247809       -3.48774707        1.70908475
 C            1.53364384       -3.55609171        1.59440423
 C           -0.62281043       -3.07912572        0.58611438
 C            2.82843085       -1.79182782        0.60820561
 C            2.10867607       -2.98996596        0.46253496
 C            2.98312946        0.44472211       -0.35869307
 C            3.08467354       -0.99355247       -0.50626895
 C            2.40413406        0.98472633       -1.57342136
 C            1.08035456        2.49567017       -0.24154312
 C            1.46803296        2.00375098       -1.49452056
 C           -1.03779079        2.62056919        0.83518807
 C           -0.16392767        3.11732733       -0.12575964
 C           -2.39151457        0.68089319        0.61147565
 C           -2.22538209        2.04626736        0.39771033
 C           -2.02001056       -1.42868135       -0.51285205
 C           -2.59598088       -0.14768004       -0.49370161
 C           -1.73210570       -2.04427608       -1.74151187
 C           -0.02128249       -3.36429808       -0.62881426
 C            1.42174679       -3.22582810       -0.72048707
 C           -0.59443629       -2.82964520       -1.83142128
 C            2.53276714       -1.34437370       -1.80480606
 C            2.14429513       -0.11640149       -2.47935166
 C            1.71934342       -2.45394231       -1.91040727
 C            0.49099802       -2.35767138       -2.67343182
 C            0.98676130       -0.07394703       -3.25605890
 C            0.23760247       -1.24466734       -3.46343200
 C            0.64105055        2.23067690       -2.59789121
 C            0.39558549        1.17456501       -3.49409883
 C           -0.72079305        3.72354451       -1.24372264
 C           -0.21679605        3.32703351       -2.54221376
 C           -2.87246742        2.64216087       -0.66936029
 C           -2.16879180        3.71855960       -1.34069087
 C           -3.10982198        0.41732568       -1.67227123
 C           -3.42292113        1.78115114       -1.69676949
 C           -2.12452850       -1.42898263       -2.92170848
 C           -1.07970501       -1.11837747       -3.88895154
 C           -3.00427247       -0.28698916       -2.86890602
 C           -0.64997468        1.24893008       -4.41715571
 C           -1.47410716        0.07783320       -4.59276400
 C           -2.80444154        0.42297448       -4.12440300
 C           -1.30193838        3.46429423       -3.49627371
 C           -2.52553448        3.68610485       -2.74415466
 C           -3.37513217        2.52677382       -2.94885036
 C           -1.55509970        2.38050693       -4.41467378
 C           -2.89326513        1.86568660       -4.13960809
