   70
C70 / DATE: 7/ 1/2024 / Origin: Program Fullerene / C70 from database
 C            1.47994792       -0.25198489        5.20019770
 C            0.62512672       -1.42707928        5.18671845
 C            1.18731022       -2.37852746        4.24486212
 C            2.58588309       -0.49994150        4.29445846
 C            2.47020852       -1.86224027        3.80381000
 C            2.62542190        0.58486820        3.32460673
 C            0.71791146        0.86168959        4.66150742
 C            1.46040703        1.42349329        3.55094907
 C           -0.66792373       -1.02434247        4.67071410
 C           -0.63126803        0.40446175        4.40678136
 C            0.17412049       -2.68036149        3.24029363
 C           -1.00884652       -1.90531991        3.56373523
 C            0.56389483       -2.79398589        1.90564642
 C            2.84747046       -2.10790298        2.49523927
 C            1.92428585       -2.81828173        1.62419802
 C            2.98826295        0.29355767        2.01200523
 C            3.37006963       -1.00688676        1.70332230
 C            2.50292747        1.09947448        0.98125170
 C            0.75341264        1.87554298        2.44344377
 C            1.41287176        1.94403820        1.22405327
 C           -1.26758364        0.84590225        3.25462773
 C           -0.64066614        1.79611546        2.44006552
 C           -1.74129119       -1.36203372        2.51970513
 C           -2.14666133       -0.03746123        2.64560063
 C           -0.33792451       -2.44534312        0.88836131
 C           -1.56644967       -1.87413663        1.23339130
 C            0.07770556       -2.44398973       -0.45507897
 C            2.36233496       -2.55600268        0.27520746
 C            3.29800352       -1.44062199        0.32428358
 C            1.44104291       -2.57518291       -0.75961982
 C            2.87530863        0.81998655       -0.33818331
 C            3.21763533       -0.49199730       -0.68780098
 C            2.51859374        1.73110538       -1.33138083
 C            0.76992962        2.55957063        0.15671302
 C            1.45498522        2.67599522       -1.04834220
 C           -1.33424202        2.23709551        1.30614052
 C           -0.61908754        2.71468374        0.20012016
 C           -2.97996647        0.47471283        1.67351589
 C           -2.63620475        1.76876838        1.12099989
 C           -2.41493099       -1.40939696        0.23143457
 C           -3.29201269       -0.37073902        0.54364439
 C           -0.83011280       -2.07342391       -1.46386114
 C           -2.12510036       -1.67196808       -1.10622625
 C           -0.38506274       -1.94499912       -2.79241104
 C            1.90523273       -2.08781535       -1.97048276
 C            2.84243572       -0.97723257       -1.93603428
 C            0.97546434       -1.84779762       -3.04225785
 C            2.36075419        1.28791979       -2.70809322
 C            2.48677968       -0.06042348       -3.00047495
 C            1.47759512       -0.72014292       -3.81250152
 C            0.73154784        2.92785952       -2.28201182
 C            1.28287932        2.05864214       -3.31023167
 C           -1.31340445        3.10915725       -0.94579930
 C           -0.63389171        3.16195360       -2.22936245
 C           -3.26211828        1.84531293       -0.18909815
 C           -3.76114954        0.51234514       -0.50629698
 C           -2.65685971        2.60626379       -1.17705671
 C           -3.00452971       -1.18390343       -2.07284329
 C           -3.71414074        0.05509594       -1.81145478
 C           -1.24633100       -1.50039654       -3.79185410
 C           -2.60893321       -1.16261693       -3.46191256
 C            0.57175850        0.04106251       -4.53711292
 C            0.43881736        1.46197876       -4.24357182
 C           -0.76429133       -0.49627780       -4.72804482
 C           -1.51218154        2.57481987       -3.23088258
 C           -2.74978434        2.18513405       -2.56661116
 C           -3.36983286        0.97727912       -2.87845466
 C           -2.87620100        0.17357198       -3.98109877
 C           -0.97910530        1.78801167       -4.24829385
 C           -1.70024740        0.61328746       -4.70686383
