   70
C70 / DATE: 7/ 1/2024 / Origin: Program Fullerene / C70 from database
 C            1.12180139        0.05204043        4.28367351
 C            2.44444804       -0.29697719        3.81857462
 C            2.43746435       -1.71743609        3.51761165
 C            0.29236600       -1.13960667        4.18747583
 C            1.05091583       -2.14533167        3.48120596
 C           -0.97942791       -0.73774164        3.64048823
 C            0.41072338        1.12381531        3.61560271
 C           -0.96791280        0.70861298        3.48568680
 C            0.98990242        1.78807314        2.54621340
 C            2.97338106        0.38701145        2.65655742
 C            2.24575712        1.40413655        2.05083692
 C            3.24616463       -1.92165976        2.33346507
 C            3.59960648       -0.60607001        1.80606293
 C            2.84940569       -2.90759412        1.44534966
 C            0.54551385       -2.68526637        2.29696607
 C            1.44427788       -3.30385960        1.42675915
 C           -1.55252652       -1.49126135        2.62702067
 C           -0.72907468       -2.30733320        1.83275133
 C           -2.70612048       -0.95760863        2.07560083
 C           -1.75310464        1.25745929        2.47179157
 C           -2.83307795        0.49272288        2.04518431
 C            0.16087867        2.55975028        1.74050808
 C           -1.18666917        2.18721084        1.58428730
 C            0.77414043        3.38581614        0.81025084
 C            2.60785550        1.78740253        0.76129165
 C            2.02890675        2.94049431        0.23601498
 C            3.61136956       -0.39439508        0.42513065
 C            3.21134222        0.84765648       -0.08628803
 C            3.29790127       -2.80350243        0.07325891
 C            3.68036070       -1.49730198       -0.42914765
 C            1.06579207       -3.52996701        0.04720032
 C            2.23820972       -3.30673938       -0.78123716
 C           -1.10990728       -2.61493899        0.51352662
 C           -0.15316097       -3.05225029       -0.40371961
 C           -3.20578111       -1.46795085        0.82070141
 C           -2.37559565       -2.25666151        0.03457672
 C           -3.53211826        0.84823422        0.83021997
 C           -3.97472349       -0.39296438        0.21183697
 C           -1.90986648        2.59198735        0.44656274
 C           -3.03953943        1.87543965        0.03595832
 C           -0.01267177        3.99149108       -0.23632129
 C           -1.37369895        3.53944617       -0.42458527
 C            1.94931473        3.12721738       -1.20208289
 C            0.69465427        3.79438766       -1.49295586
 C            3.14789276        1.01789866       -1.46960458
 C            2.36592417        2.10183923       -2.03286269
 C            3.15585875       -1.39616632       -1.78066832
 C            2.11971531       -2.40540410       -1.91626164
 C            2.93474697       -0.13993942       -2.31552979
 C           -0.25125260       -2.64407278       -1.72968032
 C            0.84522018       -2.02340586       -2.32469781
 C           -2.63045051       -2.34920127       -1.33426232
 C           -1.50887627       -2.40826163       -2.25205987
 C           -4.22021860       -0.42164528       -1.15282694
 C           -3.63529799       -1.48924981       -1.94190087
 C           -3.46626587        1.96391953       -1.28918439
 C           -4.09368946        0.80953161       -1.91301747
 C           -1.55866376        3.36280203       -1.85366037
 C           -0.23429109        3.16700721       -2.41425694
 C           -2.57963161        2.53770086       -2.28373028
 C            1.42188642        1.51749451       -2.97950151
 C            1.71377339        0.10122457       -3.06718309
 C            0.66192807       -0.80322094       -2.98473454
 C            0.09298668        1.93372835       -2.98014171
 C           -1.65987804       -1.31014931       -3.18366262
 C           -3.04597075       -0.89588677       -3.13343969
 C           -3.34510076        0.51483221       -3.12665343
 C           -2.24727803        1.45933189       -3.19401209
 C           -0.63556136       -0.36685917       -3.26096660
 C           -0.92498246        1.01016408       -3.24536648
