   70
C70 / DATE: 7/ 1/2024 / Origin: Program Fullerene / C70 from database
 C            1.52242238       -0.06119593        4.83903977
 C            0.74449649       -1.26530986        4.63368425
 C            1.24508693       -1.93826962        3.44594476
 C            2.61829914       -0.09321241        3.89686050
 C            2.46664509       -1.26955186        3.05183119
 C            2.64855564        1.19914423        3.24314162
 C            0.67739700        1.06562368        4.47370387
 C            1.30156332        1.73524060        3.35267625
 C           -0.64224114       -0.86580328        4.63657411
 C           -0.66258237        0.55699381        4.30720883
 C           -1.52917024       -1.68166881        3.96013710
 C            0.32699731       -2.32551613        2.47274696
 C           -0.99859510       -2.49703322        2.86834651
 C            0.62339915       -2.11515993        1.11774220
 C            2.76123078       -1.12666025        1.70327171
 C            1.90582428       -1.68155186        0.74071022
 C            3.24990378        1.24626644        2.00295619
 C            3.52306833       -0.02190904        1.34981391
 C            2.63811896        2.06692055        0.97893515
 C            0.56622352        1.95527876        2.18383503
 C            1.26246960        2.24818284        1.00341971
 C           -1.42286298        0.97714248        3.21663196
 C           -0.78998492        1.59128089        2.12043870
 C           -2.73218256       -1.05666827        3.45937918
 C           -2.63359260        0.32281638        3.02024174
 C           -2.03421478       -2.61208029        1.86430391
 C           -3.17264478       -1.83777801        2.32733738
 C           -0.37708576       -2.27067464        0.14388349
 C           -1.70159249       -2.53519421        0.51765699
 C           -0.06807689       -2.05696589       -1.20402685
 C            2.21224445       -1.51018947       -0.62043099
 C            1.26177447       -1.88026188       -1.58500820
 C            3.69100142        0.27266842       -0.04574544
 C            3.25357719        1.64302342       -0.25490848
 C            3.27786789       -0.66193961       -0.97708995
 C            2.62336472        1.91157727       -1.45863623
 C            0.57279329        2.32844914       -0.20723388
 C            1.26493752        2.27108961       -1.43566758
 C           -1.48341944        1.76330429        0.91504927
 C           -0.81896846        2.31660906       -0.18201353
 C           -3.30228441        0.41306708        1.73973312
 C           -3.78295643       -0.91756076        1.39307343
 C           -2.75389382        1.20060553        0.73539810
 C           -2.72859072       -2.21833344       -0.36686374
 C           -3.75342450       -1.27271536        0.05807977
 C           -1.08914440       -1.89535972       -2.15241323
 C           -2.41369231       -1.91528027       -1.74589140
 C           -0.79871664       -1.32674408       -3.38989023
 C            1.56168906       -1.75564126       -2.94222566
 C            0.49927312       -1.40464449       -3.87079006
 C            3.38442910       -0.23605092       -2.29126513
 C            3.09435943        1.16904000       -2.53529447
 C            2.73298572       -1.00015117       -3.32131920
 C            0.97828614       -0.32203404       -4.71108213
 C            2.42466413        1.27211416       -3.80487095
 C            2.36092373       -0.06666747       -4.36960047
 C            0.54977926        2.35797045       -2.64362374
 C            1.08999850        1.82646600       -3.82116663
 C            0.27585249        0.94411314       -4.64727538
 C           -1.52682178        2.57265063       -1.34700404
 C           -0.81848117        2.61126897       -2.61343304
 C           -3.24752304        1.03859617       -0.55868936
 C           -3.74775633       -0.21102389       -0.92590479
 C           -3.28272494       -0.82490481       -2.15436378
 C           -2.79115834        1.89082125       -1.55507467
 C           -1.65064988       -0.34197843       -3.90377089
 C           -1.08544833        0.90319327       -4.40539006
 C           -1.65995330        1.96956737       -3.60884177
 C           -2.86635564        0.00128985       -3.18452713
 C           -2.82471283        1.43130888       -2.93245385
