   70
C70 / DATE: 7/ 1/2024 / Origin: Program Fullerene / C70 from database
 C            1.42173367        0.18795544        5.22409398
 C            0.59620469       -0.97302384        5.47875776
 C            1.17331105       -2.07657363        4.73934941
 C            2.41912250       -0.17660622        4.22569962
 C            2.18565564       -1.54619971        3.84035187
 C            2.38238182        0.83083043        3.19489184
 C            0.57002117        1.19217640        4.62131960
 C            1.32202559        1.76072696        3.53376876
 C           -0.71996802       -0.72209775        4.90741576
 C           -0.70110131        0.58213257        4.28756635
 C            0.07128834       -2.79263065        4.14456597
 C           -1.05048227       -1.85666090        4.08235766
 C            0.34689112       -3.52215884        3.00438812
 C            2.10155875       -1.87664207        2.48525204
 C            1.45399346       -3.06721931        2.16322863
 C            2.48476924        0.45416031        1.85416161
 C            2.25484980       -0.88495944        1.49447965
 C            2.19872939        1.44888223        0.91592057
 C            0.61998246        2.26004834        2.46080123
 C            1.37150829        2.49440053        1.33156411
 C           -1.16492133        0.73166292        2.97836899
 C           -0.69189966        1.81796863        2.24633992
 C           -1.68022745       -1.64875945        2.85400319
 C           -1.70054326       -0.36113428        2.28000976
 C           -0.76284978       -3.77713347        2.11892663
 C           -1.79509290       -2.75873958        2.03042667
 C            1.10370432       -3.34244762        0.78550081
 C           -0.21006183       -3.94735097        0.79616447
 C            1.99053639       -1.19298236        0.14590875
 C            1.36468588       -2.39465430       -0.19680951
 C            2.25269496        1.13724677       -0.44117860
 C            2.09559602       -0.19567656       -0.83193579
 C            2.02638892        2.15818733       -1.36821611
 C            0.76055780        3.27329955        0.37893485
 C            1.28205363        3.26072636       -0.96340086
 C           -1.26571782        2.09924830        1.00579956
 C           -0.67800212        3.13072335        0.28055586
 C           -2.06128754       -0.19161083        0.92534789
 C           -1.91195100        1.06791033        0.30989757
 C           -2.09944659       -2.58174336        0.63159653
 C           -1.18129260       -3.41567813       -0.12240157
 C           -2.36160062       -1.30839138        0.13361829
 C            0.60931219       -2.44558006       -1.37130943
 C           -0.72151196       -2.87461047       -1.30025984
 C            1.75623108       -0.49145444       -2.16004297
 C            0.96007794       -1.60867540       -2.43383752
 C            2.09419594        1.86646211       -2.72440646
 C            1.94362231        0.48525371       -3.13911795
 C            1.35717205        2.70328340       -3.66366508
 C            0.19151333        3.72780854       -1.79411312
 C           -1.02692802        3.32604828       -1.10431867
 C            0.27387103        3.53344547       -3.16114545
 C           -2.19183253        1.21801359       -1.06644080
 C           -1.87930404        2.42571459       -1.72113702
 C           -2.34829304       -1.16908758       -1.25515335
 C           -1.64150473       -2.12513702       -1.99532283
 C           -2.56426670        0.08939480       -1.80905733
 C            0.10289197       -1.58927242       -3.54094326
 C           -1.30353777       -1.84502318       -3.29997675
 C            1.13879609        0.47127546       -4.35234175
 C            0.81977555        1.84718809       -4.70478541
 C            0.18975640       -0.52555597       -4.52338933
 C           -0.93797128        3.15368721       -3.86375282
 C           -2.02036829        2.54521480       -3.10208474
 C           -0.56514583        2.23353354       -4.92224821
 C           -2.71368207        0.16922910       -3.19402542
 C           -2.07148457       -0.84717676       -3.99884272
 C           -1.17222467       -0.18443354       -4.92143951
 C           -2.51052153        1.42920362       -3.86999421
 C           -1.58243763        1.20403845       -4.97423989
