   70
C70 / DATE: 7/ 1/2024 / Origin: Program Fullerene / C70 from database
 C            1.28710062       -0.19445374        4.54674659
 C            2.58751237       -0.46142589        3.96176710
 C            2.56260624       -1.80471804        3.41131129
 C            0.44437761       -1.35575964        4.31613040
 C            1.24504004       -2.36827571        3.65203904
 C           -0.78231583       -0.90172713        3.68088695
 C            0.55378286        0.98017190        4.11127577
 C           -0.75729794        0.54922703        3.65219417
 C            1.21690838        1.96977917        3.39839504
 C            3.08923568        0.43249199        2.93292209
 C            2.50490245        1.68125462        2.77447788
 C            3.05958269       -1.74108131        2.04546145
 C            3.38171526       -0.35879543        1.74743650
 C            2.43782810       -2.50092351        1.06520328
 C            0.65913287       -3.12096322        2.64567817
 C            1.41488493       -3.37618801        1.43310456
 C           -1.27234399       -1.58914073        2.57468284
 C           -0.69945850       -2.81193273        2.22304055
 C           -2.04854892       -0.90673741        1.63636301
 C           -1.35538428        1.20891996        2.58285639
 C           -2.17620672        0.48477537        1.71560891
 C            0.45515962        2.78574601        2.47053939
 C           -0.86386413        2.45413590        2.18363944
 C            2.49465296        2.28330953        1.45426663
 C            1.33316872        3.15182796        1.37263679
 C            3.07263404        0.15197782        0.48689321
 C            2.84250769        1.52366912        0.34295877
 C            2.52508210       -2.08922027       -0.26323025
 C            2.73199386       -0.72907478       -0.54952129
 C            1.99111490       -2.93271856       -1.23155281
 C            0.45199134       -3.80216279        0.43231556
 C           -0.84559766       -3.30248706        0.85927476
 C            0.79918377       -3.69151477       -0.90207953
 C           -2.44155192       -1.56817737        0.47381110
 C           -1.63200079       -2.57990613       -0.03239059
 C           -3.35720667       -0.96225080       -0.37173971
 C           -2.93002269        1.16465788        0.75826076
 C           -3.68643176        0.43314078       -0.15274121
 C           -1.45890211        3.09329278        1.10503650
 C           -2.61688577        2.49068807        0.47324944
 C            0.77148972        3.41583147        0.12494693
 C           -0.60483686        3.62045368        0.04858747
 C            2.52819662        2.03516303       -0.90696095
 C            1.46991456        3.02939492       -1.01765509
 C            2.53637821       -0.23008675       -1.84662739
 C            2.42274073        1.13924030       -2.03973885
 C            1.83614873       -2.45859891       -2.58714314
 C            2.06401221       -1.05813673       -2.85729933
 C           -0.21937831       -3.29207525       -1.85402337
 C           -1.34538560       -2.61027577       -1.40232106
 C            0.47980088       -2.77733818       -3.00817920
 C           -3.20259104       -1.15728643       -1.80068828
 C           -2.02288074       -1.73987649       -2.26526225
 C           -4.01290126        1.01498729       -1.44503498
 C           -3.75911678        0.00720502       -2.46270129
 C           -2.64290399        2.96201002       -0.90229446
 C           -1.30331024        3.44097076       -1.21572245
 C           -3.35246071        2.24242417       -1.85193670
 C            0.75918564        2.78678073       -2.26412094
 C            1.38341125        1.64863812       -2.92374424
 C           -0.62096938        2.93673217       -2.32159258
 C            0.97441487       -0.59023487       -3.69990356
 C           -0.06295660       -1.61039984       -3.66711864
 C           -1.36499805       -1.21230746       -3.39309783
 C            0.59814762        0.75353462       -3.65108163
 C           -2.99854490        0.62621680       -3.52162609
 C           -2.74402640        2.00853672       -3.14777144
 C           -1.32211249        2.26343575       -3.31615451
 C           -1.73272885        0.03196807       -3.89334780
 C           -0.72981825        1.08366218       -3.92759527
