   70
C70 / DATE: 7/ 1/2024 / Origin: Program Fullerene / C70 from database
 C            1.22040416       -0.14678363        4.48052930
 C            2.50779963       -0.36412954        3.84855231
 C            2.46944600       -1.66780560        3.21140633
 C            0.37818826       -1.29497646        4.18013908
 C            1.10911125       -2.16381941        3.28801554
 C           -0.90858582       -0.80204708        3.75023429
 C            0.46806363        1.05239736        4.15529397
 C           -0.89102957        0.64980915        3.84340594
 C            1.06219432        2.05278096        3.40213949
 C            2.98252230        0.59403319        2.86606003
 C            2.34087303        1.81679234        2.73823327
 C            3.07022999       -1.54100951        1.89659504
 C            3.35556453       -0.13651229        1.66447620
 C            2.52412747       -2.26564894        0.84994090
 C            0.51108981       -2.59303385        2.10874104
 C            1.34895066       -2.98902690        1.07236311
 C           -1.53837942       -1.38532692        2.65625120
 C           -0.81323759       -2.23712365        1.80531968
 C           -2.65509614       -0.72108201        2.16242319
 C           -1.65099360        1.37776194        2.92799280
 C           -2.73539416        0.71970375        2.34936710
 C            0.23662405        2.84003714        2.50574469
 C           -1.09716325        2.49988741        2.29230387
 C            2.28048419        2.44300218        1.43202675
 C            1.05748588        3.22600537        1.36931940
 C            3.08104928        0.40513186        0.40507477
 C            2.69359942        1.74643144        0.30042200
 C            2.80475368       -1.84123393       -0.44208622
 C            2.91283556       -0.46341950       -0.68574876
 C            2.52851394       -2.72505718       -1.47649725
 C            0.78286626       -3.67863044        0.01108225
 C            1.50786085       -3.72847980       -1.24574993
 C           -1.33113635       -2.56557829        0.54179103
 C           -0.61445208       -3.42426848       -0.28927330
 C           -3.13843027       -1.01813104        0.83075253
 C           -2.35056775       -1.79040224       -0.01182421
 C           -3.41156016        1.28358689        1.19654344
 C           -3.78172763        0.18118681        0.32157361
 C           -1.73794415        3.06974496        1.19398319
 C           -2.94458338        2.46966011        0.65364943
 C            0.45154486        3.43868850        0.13371753
 C           -0.93581895        3.55123812        0.07731970
 C            2.32737466        2.25890454       -0.93530172
 C            1.16213488        3.12750512       -1.02391944
 C            2.66540372        0.05897218       -1.96426938
 C            2.33695446        1.39952592       -2.10001395
 C            2.34765670       -2.21857036       -2.81610381
 C            2.32215157       -0.78582130       -3.01260705
 C            0.53871495       -3.62944599       -2.32107612
 C           -0.73612106       -3.26844732       -1.72940793
 C            1.10054109       -2.76363753       -3.33263060
 C           -2.40782972       -1.58891174       -1.39570725
 C           -1.45020579       -2.17956670       -2.22460265
 C           -3.83973791        0.37781387       -1.04959299
 C           -3.27664921       -0.63698383       -1.92150282
 C           -2.92626309        2.64530645       -0.78966226
 C           -1.64294878        3.23127305       -1.15361310
 C           -3.49286767        1.67699811       -1.60779978
 C            0.45151378        2.79779006       -2.24995148
 C            1.21141079        1.77001236       -2.94684438
 C           -0.93670654        2.74778903       -2.25431472
 C            1.14768994       -0.46972664       -3.81065693
 C            0.30360908       -1.65131624       -3.80140288
 C           -1.01364574       -1.51111417       -3.38279664
 C            0.54512193        0.78168704       -3.67198544
 C           -2.91303828        0.01526130       -3.15806672
 C           -2.91501896        1.44881988       -2.91836911
 C           -1.57809560        1.94612077       -3.19324550
 C           -1.64378919       -0.33233593       -3.75925606
 C           -0.83744275        0.87774531       -3.84690361
