   70
C70 / DATE: 7/ 1/2024 / Origin: Program Fullerene / C70 from database
 C            1.19852557       -0.07038021        4.43966110
 C            2.47910385       -0.33300469        3.83030867
 C            2.41768673       -1.67172579        3.26754511
 C            0.35941141       -1.23904804        4.20694716
 C            1.02531418       -2.05241523        3.21717840
 C           -0.96439202       -0.75036326        3.90891775
 C            0.44063954        1.07653954        3.98604561
 C           -0.94402834        0.68669099        4.13461687
 C            0.82726754        1.74236606        2.82114795
 C            2.94098833        0.54902539        2.77652147
 C            2.12988676        1.58607988        2.32023647
 C            3.14654919       -1.64509207        2.02415449
 C            3.62045156       -0.28710970        1.80306300
 C            2.63171614       -2.32174921        0.93363679
 C            0.43187509       -2.23394568        1.96755566
 C            1.24286749       -2.54731899        0.86883296
 C           -1.63420912       -1.23191121        2.78816715
 C           -0.90096260       -1.84569207        1.75706726
 C           -2.84797816       -0.62274839        2.49408789
 C           -1.91016131        1.44690988        3.50276181
 C           -3.05238783        0.73910669        2.95977030
 C           -0.15490255        2.37805396        2.04742105
 C           -1.47812011        2.39267743        2.48291457
 C            0.13565323        2.79439644        0.74886847
 C            2.47523329        2.18349943        1.11432455
 C            1.46409413        2.89149844        0.35452368
 C            3.74813137        0.16147657        0.48598768
 C            3.31165507        1.45022680        0.16985386
 C            3.33432050       -2.13740374       -0.24302244
 C            3.82305026       -0.79811880       -0.52821844
 C            2.81430719       -2.69940100       -1.46199856
 C            0.63927177       -2.85631630       -0.35589747
 C            1.43541825       -3.12891170       -1.46931935
 C           -1.45901561       -1.98215895        0.47792909
 C           -0.72517536       -2.60886004       -0.53516645
 C           -3.39561742       -0.71137518        1.15774581
 C           -2.69859003       -1.40249421        0.17573483
 C           -3.55474470        1.51565021        1.84725241
 C           -2.54100522        2.49595843        1.49804152
 C           -3.98044810        0.58100321        0.82669188
 C           -0.88560268        2.90742591       -0.20317028
 C           -2.21310877        2.65547344        0.15468155
 C           -0.56043638        3.06842560       -1.55028591
 C            1.81010641        2.77762503       -1.05093029
 C            2.81574667        1.73769264       -1.16881365
 C            0.80346065        2.84707093       -1.99534853
 C            3.37969034       -0.46492891       -1.87279453
 C            2.96225772       -1.69642384       -2.50535806
 C            2.63754590        0.69172960       -2.07016729
 C            0.93602838       -2.81471180       -2.79063931
 C            1.73825258       -1.69889832       -3.27216947
 C           -1.29018146       -2.74577304       -1.80584854
 C           -0.43169974       -2.76608153       -2.98129502
 C           -3.05887896       -1.19522744       -1.15493033
 C           -2.47147101       -1.97283542       -2.14114006
 C           -3.91972741        1.00284556       -0.49018847
 C           -3.10343241        2.16708360       -0.80515457
 C           -3.64496207        0.01755496       -1.51630264
 C           -1.43913321        2.52205329       -2.56907095
 C           -2.68482286        2.04162783       -2.19319704
 C           -3.13479124        0.74156786       -2.66889235
 C            0.75913515        1.84769289       -3.04804847
 C            1.52680550        0.68867868       -2.92883104
 C            1.10526414       -0.49286285       -3.56175245
 C           -0.61792407        1.76156788       -3.50057075
 C           -0.94473594       -1.77689941       -3.91050299
 C           -2.26518456       -1.39054930       -3.45752798
 C           -2.38515421        0.04869412       -3.60887679
 C           -0.17132935       -0.56461266       -4.11903211
 C           -1.08339706        0.56137985       -4.01573227
