   70
C70 / DATE: 7/ 1/2024 / Origin: Program Fullerene / C70 from database
 C            1.54141452        0.07601804        4.73902874
 C            0.74741340       -1.13134279        4.59956768
 C            1.54895681       -2.09646909        3.88468403
 C            2.68197325       -0.04432398        3.84645023
 C            2.73463346       -1.41201072        3.38709524
 C            2.58274888        1.01091559        2.85732280
 C            0.73528569        1.18879981        4.27163271
 C            1.47558233        1.87142265        3.22912111
 C           -0.53932444       -0.75840455        4.04184373
 C           -0.58411623        0.68903536        3.93663034
 C           -1.09195523       -1.50466145        3.00637898
 C            0.94832867       -2.78656209        2.76136637
 C           -0.39666489       -2.59716130        2.45997577
 C            2.80842160       -1.65960218        1.95999197
 C            1.89041639       -2.73877207        1.66472795
 C            2.75842000        0.72545429        1.50497090
 C            2.87840763       -0.59868797        1.06173777
 C            2.35295085        1.69090511        0.58661959
 C            0.74922899        2.46121286        2.20267749
 C            1.36185606        2.60743534        0.95935097
 C           -1.22579023        1.25530264        2.83844977
 C           -0.64126252        2.37330007        2.24184362
 C           -2.11374878       -0.91646288        2.26214479
 C           -2.10518133        0.47214345        2.08164166
 C           -2.82717845       -1.72111048        1.38240993
 C           -0.85254739       -3.12743691        1.25364997
 C           -2.19968396       -2.95202394        0.95268172
 C            1.37597491       -2.83027047        0.37942698
 C            0.08001339       -3.31528002        0.21994615
 C            2.62605796       -0.87064369       -0.28191592
 C            1.92333258       -2.03474634       -0.63091078
 C            2.61337797        1.47842336       -0.76214407
 C            2.75673628        0.15982956       -1.20731204
 C            2.31329049        2.50528526       -1.65117385
 C            0.70295309        3.35444606       -0.02072010
 C            1.23909376        3.41622385       -1.30784599
 C           -1.36213719        3.04847089        1.26958612
 C           -0.63610786        3.68663581        0.18376501
 C           -2.70377397        1.03185024        0.94705004
 C           -2.51425753        2.38529267        0.68731984
 C           -3.44258553       -1.11980623        0.21466766
 C           -3.13834118        0.19936924       -0.08481796
 C           -2.70107122       -3.26980903       -0.36832417
 C           -3.42464563       -2.10480151       -0.85304574
 C           -0.33950546       -3.61722402       -1.07045363
 C           -1.75418676       -3.65633400       -1.38791748
 C            1.49456706       -2.22821605       -1.95205779
 C            0.34331585       -2.98563357       -2.18610956
 C            2.65671342       -0.15557825       -2.55638794
 C            1.86761731       -1.30973446       -2.93321047
 C            2.23190433        2.24247300       -3.07266851
 C            2.39126920        0.88275257       -3.53320694
 C            0.35112768        3.50370313       -2.46360170
 C            0.93232391        2.70846377       -3.52641261
 C           -1.53600883        3.74893750       -0.95239539
 C           -2.65291214        2.86299096       -0.67618039
 C           -1.01728101        3.42055753       -2.26358200
 C           -2.88357832        0.55216608       -1.41399575
 C           -2.72117999        1.88631585       -1.74450321
 C           -1.72582742        2.23760597       -2.74106010
 C           -2.85292557       -1.72754567       -2.13285661
 C           -1.97066822       -2.79541737       -2.53878764
 C           -0.67632992       -2.43379933       -3.06606502
 C           -2.43349959       -0.41380479       -2.30900362
 C            0.84086276       -0.83500058       -3.84712410
 C            1.17361621        0.51240541       -4.23765075
 C            0.19688330        1.55046460       -4.00161757
 C           -1.01696648        1.22435439       -3.39382264
 C           -0.47558886       -1.15047216       -3.55328908
 C           -1.35023792       -0.12181296       -3.15358651
