   70
C70 / DATE: 7/ 1/2024 / Origin: Program Fullerene / C70 from database
 C            1.34655459        0.05643311        4.32849464
 C            2.64229717       -0.25075291        3.77513147
 C            2.62901430       -1.63904121        3.34092243
 C            0.51791350       -1.13334979        4.21788200
 C            1.28396173       -2.15490758        3.53076820
 C           -0.75962144       -0.73833211        3.65652282
 C            0.60425541        1.16448757        3.76313444
 C           -0.74280241        0.70067448        3.46862515
 C            1.21326577        2.04388057        2.86844179
 C            3.12193528        0.55256146        2.67128325
 C            2.47479620        1.73875695        2.32228300
 C            3.22255363       -1.70489581        2.01511708
 C            3.53237272       -0.34713203        1.60447292
 C            2.67955305       -2.57973038        1.08774194
 C            0.68020100       -2.85300425        2.48964588
 C            1.47612622       -3.31158861        1.44030144
 C           -1.32529687       -1.52228046        2.66591294
 C           -0.69328172       -2.71004988        2.28254929
 C           -2.24089849       -0.92699198        1.80449481
 C           -1.41725133        1.26248929        2.38324157
 C           -2.10628108        0.42737037        1.49328499
 C            0.36586458        2.92929194        2.20462234
 C           -1.01139626        2.52304236        1.96398210
 C            0.82430085        3.66066097        1.03954570
 C            2.85736130        2.30810545        1.10945100
 C            2.06261545        3.35725692        0.50041084
 C            3.32313231        0.05627133        0.28752599
 C            3.31679088        1.42348300        0.04894838
 C            2.52024569       -2.14170916       -0.28908293
 C            2.64831035       -0.79258646       -0.59862282
 C            0.85045014       -3.71854612        0.19520070
 C            1.42299525       -2.89926046       -0.86270080
 C           -1.30451485       -3.50923840        1.32165835
 C           -0.51362820       -3.95754784        0.18517935
 C           -3.03070150       -1.74241097        1.01184202
 C           -2.61028886       -3.11660680        0.82027359
 C           -3.51002682       -1.24217018       -0.26102072
 C           -2.48172960        0.89299994        0.22129813
 C           -3.24559602        0.07920075       -0.62554829
 C           -1.39704228        3.00443540        0.65443571
 C           -0.31991289        3.84535483        0.15995512
 C           -2.05430787        2.15131934       -0.22403795
 C           -0.12622973        3.94170978       -1.21046500
 C            2.20771690        3.22956580       -0.94040386
 C            2.80039549        1.92683588       -1.20362648
 C            1.19207508        3.67451124       -1.77394621
 C            1.91826818       -0.25937043       -1.66941520
 C            2.16577480        1.05365235       -2.07973568
 C            0.57578854       -2.28464426       -1.77893261
 C            0.89431328       -1.01250009       -2.27113112
 C           -1.26512521       -3.64164610       -1.01478431
 C           -2.63157840       -3.38785962       -0.60376558
 C           -3.34066269       -2.30346259       -1.24912372
 C           -0.70022089       -2.81695738       -1.98728267
 C           -2.93664804       -1.94506976       -2.52400536
 C           -1.55004017       -2.20594588       -2.90415377
 C           -3.38676438        0.43037312       -1.96630170
 C           -3.25895422       -0.60825062       -2.97125726
 C           -2.05998963        2.45798377       -1.58808805
 C           -1.11133202        3.34653815       -2.09700115
 C           -2.70440171        1.60345390       -2.47732488
 C            0.99514480        2.97590090       -3.03173757
 C            1.44645567        1.59790533       -3.13578917
 C           -0.42372259        2.99294293       -3.32263289
 C            0.14527998       -0.47683269       -3.32536707
 C           -1.07377058       -1.06278374       -3.65883338
 C           -2.21571683       -0.19816019       -3.88753101
 C           -2.02775574        1.22503023       -3.71587688
 C            0.37757299        0.83232796       -3.74315307
 C           -0.75816172        1.72880937       -3.94190221
