   70
C70 / DATE: 7/ 1/2024 / Origin: Program Fullerene / C70 from database
 C            1.26005197       -0.20087365        4.28661359
 C            2.53629407       -0.56280222        3.72343255
 C            2.48838457       -1.97524130        3.36859946
 C            0.43935757       -1.40195909        4.34135629
 C            1.14942083       -2.45920196        3.64913511
 C           -0.89292184       -1.03578547        3.89626838
 C            0.47901038        0.82973451        3.63151544
 C           -0.90285611        0.40707470        3.70635475
 C            0.93055386        1.41900890        2.44959214
 C            3.00566658        0.15320950        2.55613384
 C            2.20949633        1.13263765        1.95305633
 C            3.02229146       -2.10013731        2.02086108
 C            3.65365560       -0.83201475        1.71348918
 C            2.26866725       -2.73786478        1.03624939
 C            0.48353894       -3.19661057        2.68068811
 C            1.13556936       -3.46357337        1.40693334
 C           -1.57088690       -1.83898089        2.97960426
 C           -0.92510850       -2.93734845        2.40793294
 C           -2.66665179       -1.28810841        2.31991582
 C           -1.80316865        0.94503503        2.80220392
 C           -2.86722077        0.14724543        2.39798037
 C           -0.00786108        2.04803056        1.62525617
 C           -1.36789903        1.95779055        1.94826636
 C            0.39430519        2.60347491        0.40373478
 C            2.54863957        1.54697687        0.66533320
 C            1.71483319        2.42265144       -0.03018251
 C            3.86685926       -0.50450685        0.38982367
 C            3.52053769        0.83369780       -0.04072724
 C            2.48542885       -2.41926229       -0.30982076
 C            3.37923124       -1.40308483       -0.64413109
 C            1.61355770       -2.89225947       -1.28873094
 C            0.08859002       -3.71757861        0.43407964
 C           -1.16629937       -3.26031093        1.00830127
 C            0.34082550       -3.47835673       -0.90356764
 C           -2.95019811       -1.68129301        0.94735028
 C           -2.02631854       -2.45636459        0.26280104
 C           -3.64454911        0.54300262        1.23991637
 C           -3.57516276       -0.55385141        0.28248978
 C           -2.30963365        2.57883694        1.13861229
 C           -3.51080582        1.84083074        0.77245697
 C           -0.52837645        3.30962951       -0.38548183
 C           -1.87057565        3.32476904       -0.02248622
 C           -0.22206858        3.61776111       -1.70888991
 C            2.07961742        2.77384810       -1.32968633
 C            1.11811949        3.41078667       -2.19938010
 C            3.45119890        0.78222010       -1.48648076
 C            3.13294248       -0.59419608       -1.83248670
 C            2.79088346        1.80320378       -2.13929850
 C            1.38462221       -2.09855635       -2.48900967
 C            2.02122868       -0.86674273       -2.62841589
 C           -0.68701028       -2.84256725       -1.70483604
 C           -1.73081393       -2.16652491       -1.07326920
 C           -0.01920371       -2.23290087       -2.83895709
 C           -3.26781388       -0.28073661       -1.04758690
 C           -2.35193951       -1.09206971       -1.72588456
 C           -3.76070942        2.08239137       -0.63361383
 C           -2.87315204        3.14630107       -1.06027149
 C           -3.59465337        0.97706297       -1.55845256
 C           -1.13742871        3.20589282       -2.76161028
 C           -2.42677088        2.83534419       -2.40668737
 C           -2.90098524        1.49373236       -2.72621681
 C            1.02604796        2.60687687       -3.41179736
 C            1.90806861        1.46591184       -3.23762128
 C            1.38992844        0.17411876       -3.32004487
 C           -0.38053598        2.38056058       -3.68768287
 C           -0.64943590       -1.19691557       -3.50148415
 C           -1.93438847       -0.73414425       -3.00892770
 C           -2.10134786        0.63423917       -3.46518824
 C            0.12106928       -0.02228266       -3.86835906
 C           -0.81374199        1.09111941       -3.96907037
