   70
C70 / DATE: 7/ 1/2024 / Origin: Program Fullerene / C70 from database
 C            1.21380921        0.04708254        4.17863935
 C            2.52852924       -0.30512572        3.69421511
 C            2.51811260       -1.72709883        3.40020026
 C            0.37877861       -1.14180752        4.09739714
 C            1.13276875       -2.16140143        3.40353264
 C           -0.89660420       -0.73876215        3.55150562
 C            0.49597713        1.12026440        3.52063842
 C           -0.88171494        0.70140550        3.39185240
 C            1.06946978        1.79848088        2.45411302
 C            3.04004765        0.37472823        2.52197746
 C            2.30714843        1.39524521        1.92781008
 C            3.29966458       -1.93549674        2.19759127
 C            3.64764860       -0.62222761        1.66204252
 C            2.88576596       -2.92402929        1.31922585
 C            0.60566833       -2.73622531        2.24743979
 C            1.48607551       -3.33403248        1.33937770
 C           -1.47466603       -1.48721822        2.53786597
 C           -0.70413725       -2.43207012        1.83828567
 C           -2.58488054       -0.93453410        1.90599197
 C           -1.64927319        1.23763244        2.36401291
 C           -2.69107774        0.46435827        1.85850398
 C            0.23765700        2.59656563        1.67283301
 C           -1.12829592        2.27290653        1.57365036
 C            0.84102750        3.40166348        0.71581620
 C            2.64643643        1.77256421        0.63052248
 C            2.07354188        2.93192842        0.11427635
 C            3.63662486       -0.41282743        0.28112364
 C            3.23602572        0.83111052       -0.22440125
 C            3.29470704       -2.81895288       -0.06601731
 C            3.68288895       -1.51680567       -0.57336205
 C            1.06356466       -3.53325909       -0.03631147
 C            2.20346325       -3.30154401       -0.89567142
 C           -1.12780824       -2.85110528        0.57131466
 C           -0.17673488       -3.05129560       -0.41843577
 C           -3.24093896       -1.72145344        0.96909968
 C           -2.44013842       -2.62949386        0.18000944
 C           -4.24297426       -1.14148958        0.09833720
 C           -3.59922293        1.08182812        1.00973126
 C           -4.44951193        0.28709593        0.14444547
 C           -1.92451794        2.82022554        0.55054233
 C           -3.15615008        2.23736575        0.25550441
 C            0.03738337        4.00388628       -0.32071224
 C           -1.33784694        3.58437751       -0.45263466
 C            1.96540651        3.11556062       -1.32283187
 C            0.70032168        3.76991159       -1.59337583
 C            3.15875975        1.00363811       -1.60649252
 C            2.37931719        2.09577930       -2.16036493
 C            3.13170155       -1.41226730       -1.91301277
 C            2.05383476       -2.38241541       -2.00581213
 C            2.93511145       -0.15339524       -2.45234234
 C           -0.33731886       -2.41820567       -1.65666628
 C            0.78065305       -1.94049053       -2.35505535
 C           -2.69790808       -2.32365444       -1.21630316
 C           -3.89694055       -1.50225597       -1.26774826
 C           -1.62018945       -2.02610589       -2.04875694
 C           -4.31067312        0.80304894       -1.20765006
 C           -3.49322656        2.00125096       -1.14128821
 C           -3.88843896       -0.28857625       -2.06327058
 C           -1.55616218        3.19845470       -1.83784070
 C           -0.25259028        3.12199525       -2.47789272
 C           -2.52042671        2.23319244       -2.11098773
 C            1.43967858        1.52629865       -3.11933830
 C            1.72218109        0.10281960       -3.21107927
 C            0.66502883       -0.80091541       -3.15183344
 C            0.11322656        1.95996920       -3.15130659
 C           -1.76759578       -1.05533678       -3.03758593
 C           -2.84286472       -0.07706272       -2.94939788
 C           -2.24318532        1.24701995       -3.06043157
 C           -0.59427874       -0.36461693       -3.53632676
 C           -0.87971235        1.06390023       -3.53688733
