   70
C70 / DATE: 7/ 1/2024 / Origin: Program Fullerene / C70 from database
 C            1.07523264       -0.04385087        4.77861010
 C            2.34965588       -0.40074349        4.19692032
 C            2.26302764       -1.78884296        3.77303889
 C            0.23406349       -1.23172551        4.73835064
 C            0.86072520       -2.15825884        3.82046032
 C           -1.11150364       -0.79328644        4.46095404
 C            0.31277238        1.02948460        4.17056975
 C           -1.07190544        0.65596079        4.33649023
 C            0.72658493        1.56275735        2.94581827
 C            2.82397384        0.35755777        3.06016378
 C            2.06247253        1.40655285        2.54625458
 C            2.96506509       -1.91043517        2.50786205
 C            3.42530553       -0.58330030        2.12971573
 C            2.41317293       -2.71966388        1.53097858
 C            0.22202739       -2.51353332        2.62912623
 C            1.00084270       -3.07022542        1.62007185
 C           -1.77416671       -1.29405936        3.27285371
 C           -1.04943377       -2.00356936        2.31754463
 C           -1.99472440        1.01035505        3.28879506
 C           -2.62514471       -0.21436704        2.82428146
 C           -0.23238033        2.06634276        2.04289279
 C           -1.60384306        1.92860464        2.32526704
 C            0.17787874        2.57124042        0.79842001
 C            2.47992939        1.94328239        1.33753911
 C            1.52909997        2.63668503        0.49528122
 C            3.48411545       -0.22568632        0.78312362
 C            3.31386536        1.12368312        0.47310578
 C            2.69559386       -2.42057751        0.14300097
 C            3.26341693       -1.19596397       -0.20441920
 C            0.48075198       -3.14693047        0.27028419
 C            1.58531002       -2.93116164       -0.64331492
 C           -1.49417282       -1.96771748        0.98795591
 C           -0.74139549       -2.56986101       -0.02727672
 C           -3.08926598       -0.22561302        1.51673858
 C           -2.65167816       -1.24177949        0.66313390
 C           -2.52600142        2.13316209        1.30811898
 C           -3.38919785        1.01534964        0.96332900
 C           -0.74717393        2.76375858       -0.22856664
 C           -2.10144244        2.73555667        0.06767996
 C           -0.33558778        2.72274246       -1.56586708
 C            1.95139181        2.46496584       -0.88518426
 C            3.06872869        1.53401003       -0.89509102
 C            0.98351688        2.38444315       -1.88174190
 C            3.21088494       -0.81924599       -1.54456705
 C            3.14696956        0.58893237       -1.90121794
 C            1.32656959       -2.35397022       -1.87990861
 C            2.30549606       -1.53271577       -2.43322130
 C           -1.03625373       -2.30125646       -1.36110486
 C            0.00122387       -2.20836331       -2.29934714
 C           -3.12265784       -1.25619915       -0.65023416
 C           -2.31723648       -1.87744589       -1.68382280
 C           -3.70457253        1.11439156       -0.44875180
 C           -3.04638032        2.31170390       -0.95112206
 C           -3.70058710       -0.04374734       -1.21353456
 C           -1.29414316        2.77947500       -2.57473994
 C           -2.65403782        2.36906020       -2.27874506
 C           -0.96828675        2.25946192       -3.88612810
 C            1.26884842        1.68286904       -3.06087160
 C            2.27002732        0.71321098       -3.05180402
 C            1.95406019       -0.62966530       -3.51254106
 C            0.31700313        1.61940795       -4.07560986
 C           -0.24627750       -1.68084131       -3.56781047
 C            0.75927073       -0.83039134       -4.18722434
 C            0.07587275        0.33657648       -4.71458244
 C           -2.55751863       -1.17087493       -2.92878555
 C           -3.32484911        0.02863653       -2.61626386
 C           -2.96227451        1.25711017       -3.16296853
 C           -2.00487372        1.30334796       -4.25325063
 C           -1.55428011       -1.13167210       -3.88740139
 C           -1.35150057        0.07686269       -4.66771046
