   70
C70 / DATE: 7/ 1/2024 / Origin: Program Fullerene / C70 from database
 C            1.26262257       -0.08316709        4.60482269
 C            2.56085513       -0.21330257        3.97492555
 C            2.54907884       -1.44048912        3.19748152
 C            0.46118891       -1.23242300        4.20776037
 C            1.20177561       -1.97498823        3.21549769
 C           -0.85282233       -0.75577136        3.85419856
 C            0.47642674        1.11499884        4.36181730
 C           -0.86504675        0.69000180        4.00643919
 C            1.04335261        2.19222365        3.69236829
 C            3.03468846        0.85615797        3.11412133
 C            2.38683650        2.08426941        3.13223351
 C            3.14563276       -1.15561814        1.91021032
 C            3.41967767        0.26845454        1.83670197
 C            2.61401381       -1.75817569        0.78583826
 C            0.59737808       -2.27335343        1.99635013
 C            1.41630898       -2.47346808        0.88748789
 C           -1.50420952       -1.29595608        2.75070808
 C           -0.76162243       -2.00331490        1.78893476
 C           -2.66571275       -0.64269622        2.35891884
 C           -1.61965831        1.42698782        3.09816008
 C           -2.74689894        0.79208745        2.59141281
 C            0.22860385        2.93895740        2.74923673
 C           -0.98650668        2.40958304        2.32164960
 C            2.43162615        2.90567738        1.93993649
 C            1.12286460        3.51729847        1.76830698
 C            3.15708273        0.94497121        0.63799587
 C            2.80091330        2.29090250        0.67586391
 C            2.92579110       -1.18996181       -0.43649358
 C            2.91002901        0.20264071       -0.52731555
 C            2.65853252       -1.95078390       -1.55884321
 C            0.85743218       -2.97766406       -0.28494451
 C            1.68912789       -3.01572892       -1.40486682
 C           -1.29964390       -2.23487503        0.51497151
 C           -0.53273601       -2.89877531       -0.44857205
 C           -3.23690512       -0.91137046        1.05867315
 C           -2.49702216       -1.62218142        0.12847888
 C           -3.44394475        1.38354431        1.47351750
 C           -3.89639894        0.29880053        0.62016253
 C           -1.43035902        2.67707897        1.01588891
 C           -2.72226595        2.32606419        0.64830183
 C            0.77044421        3.41400043        0.36710308
 C            1.88994300        2.80325769       -0.32538197
 C           -0.51575307        3.01589148        0.01320071
 C            2.26880300        0.81159113       -1.61748362
 C            1.60827632        2.02780663       -1.43536398
 C            2.35092745       -1.28250965       -2.80336370
 C            1.98867378        0.06028039       -2.76794683
 C            1.14602569       -3.29759953       -2.71507739
 C            1.57476298       -2.22167695       -3.59849436
 C           -1.11615895       -3.17507178       -1.68765841
 C           -0.28345778       -3.44462104       -2.84539311
 C           -2.78513948       -1.45756061       -1.22894525
 C           -2.22955969       -2.35604693       -2.13189340
 C           -3.70043640        0.71140935       -0.75186954
 C           -2.99527083        1.98553439       -0.73566261
 C           -3.29945697       -0.23604338       -1.68753067
 C           -0.72809034        2.56541959       -1.29506410
 C            0.39107924        2.22463262       -2.06968876
 C           -2.02039024        2.20269693       -1.70451253
 C            1.06203566        0.54675656       -3.69631689
 C            0.23889909        1.68847041       -3.33664805
 C            0.41087147       -1.74419985       -4.31625018
 C           -0.72063642       -2.57126095       -3.92123525
 C           -1.95631315       -1.93285859       -3.49710473
 C            0.22967146       -0.37570387       -4.46147233
 C           -2.86752192        0.26011610       -2.91218768
 C           -2.19741233        1.55065872       -2.92240155
 C           -1.09204005        1.46723511       -3.84863554
 C           -2.19037672       -0.61248800       -3.85264535
 C           -1.12248544        0.15524828       -4.47241332
