   70
C70 / DATE: 7/ 1/2024 / Origin: Program Fullerene / C70 from database
 C            1.58663177        0.04883962        4.61350761
 C            0.78449308       -1.15617162        4.53419546
 C            1.21111408       -1.91488910        3.36987744
 C            2.58449318       -0.02575474        3.56728891
 C            2.40005566       -1.27428867        2.84769453
 C            2.51526720        1.20397790        2.79704245
 C            0.71625476        1.17004364        4.30311063
 C            1.25979561        1.84243750        3.14372444
 C           -0.60011606       -0.74764584        4.59724488
 C           -0.63690322        0.66560468        4.23227979
 C           -1.53117659       -1.58442570        4.01001298
 C            0.23615100       -2.37820398        2.48770212
 C           -1.06701197       -2.49360229        2.96390492
 C            0.46732197       -2.31910089        1.10518153
 C            2.59661797       -1.23693813        1.47899700
 C            1.72673492       -1.92962972        0.63252986
 C            2.85027900        1.12547415        1.44925345
 C            3.24437740       -0.11993370        0.97039260
 C            2.23832981        2.00477852        0.54849059
 C            0.41477335        2.20276006        2.10509455
 C            1.00532494        2.56789086        0.89922868
 C           -1.46579983        1.07183195        3.18429917
 C           -0.93133289        1.79886142        2.10829815
 C           -2.74772467       -0.97431187        3.52137618
 C           -2.66381884        0.38095943        3.00856255
 C           -2.15359625       -2.67543487        2.02810641
 C           -3.24444893       -1.81437155        2.45549479
 C           -0.58291233       -2.53122297        0.19755923
 C           -1.89046485       -2.75488745        0.66675046
 C           -0.33915693       -2.40958683       -1.18173352
 C            1.96776446       -1.85684326       -0.74326269
 C            0.88840802       -1.91916091       -1.63239239
 C            3.69717379       -0.19482285       -0.32774948
 C            3.16332667       -1.26314914       -1.14706021
 C            2.63476115        1.94517272       -0.79594521
 C            3.60644438        1.00000275       -1.13451355
 C            1.84263219        2.53389503       -1.79502409
 C            0.19850677        3.12974355       -0.07259103
 C            0.64280035        3.14815984       -1.44884709
 C           -1.70199178        1.98922981        0.95416396
 C           -1.21620952        2.80708412       -0.05851937
 C           -3.32457306        0.39539844        1.71285535
 C           -3.84364073       -0.94343445        1.46504496
 C           -2.74664595        1.11158137        0.66809065
 C           -2.96788761       -2.49997014       -0.17475682
 C           -3.86009618       -1.40126993        0.16163327
 C           -1.39535843       -2.46577170       -2.08644578
 C           -2.75461403       -2.44764618       -1.59793956
 C           -1.37595429       -1.57788765       -3.22735104
 C            0.99284711       -1.40010080       -2.93989974
 C           -0.16354272       -1.06375055       -3.65180605
 C            3.34143958       -0.85166769       -2.52246493
 C            3.75056999        0.54856407       -2.50079304
 C            2.22192817       -0.95605170       -3.42563764
 C            2.08559763        2.27492592       -3.14636778
 C            3.01967636        1.23699124       -3.53423658
 C            2.26452126        0.23208777       -4.26230630
 C           -0.21481509        0.16340339       -4.30825293
 C            0.95556037        2.16656551       -4.05230644
 C            1.01285910        0.84319450       -4.65570617
 C           -0.53185867        2.96198513       -2.28849591
 C           -1.62207276        2.54436153       -1.42681233
 C           -0.38638093        2.35970058       -3.52488661
 C           -1.14949623        1.15791105       -3.81265578
 C           -3.00642684        0.73909391       -0.65855463
 C           -3.70945124       -0.43777352       -0.90625343
 C           -3.36843787       -1.21474403       -2.07331173
 C           -2.46238473       -0.63282964       -3.03075283
 C           -2.32987827        1.37767346       -1.70800715
 C           -2.13865276        0.71708865       -2.93534969
