   70
C70 / DATE: 7/ 1/2024 / Origin: Program Fullerene / C70 from database
 C            1.39206448        0.18685881        5.09737381
 C            0.59609495       -1.02660075        5.05822859
 C            1.41582222       -2.07005401        4.47326246
 C            2.59640021       -0.04742768        4.31625930
 C            2.65900682       -1.45924430        4.02447329
 C            2.59904273        0.88747737        3.20352700
 C            0.63495270        1.23072402        4.43260898
 C            1.46570484        1.77738310        3.38277517
 C           -0.67751723       -0.70764821        4.43621596
 C           -0.65726654        0.69521746        4.05280986
 C           -1.25499488       -1.62370203        3.56979254
 C            0.87809303       -2.84900793        3.36868952
 C           -0.46000820       -2.72600714        3.03264044
 C            2.86913183       -1.85756612        2.65101900
 C            1.86735131       -2.85212126        2.30749453
 C            2.89575941        0.44419265        1.90708621
 C            3.20380190       -0.90935142        1.68770452
 C            2.49573778        1.25475718        0.82885225
 C            0.84454337        2.24035150        2.23808410
 C            1.60856248        2.30358610        1.08559182
 C           -1.18300376        1.07521062        2.81724580
 C           -0.53736031        2.08236530        2.09577395
 C           -2.09166026       -1.13094496        2.49169633
 C           -2.05072268        0.21574150        2.13977969
 C           -0.85209934       -2.91252101        1.64818303
 C           -2.04785541       -2.12005443        1.43678862
 C            1.47519992       -2.94285139        0.97068612
 C            0.11230381       -2.95324504        0.63729095
 C            3.25824156       -1.37845426        0.38442480
 C            2.39421858       -2.49588207        0.02954167
 C            2.71707548        0.83528276       -0.49016549
 C            3.21391266       -0.44175551       -0.71472491
 C            2.16356308        1.54680523       -1.56229936
 C            1.09209700        3.04702451        0.04056185
 C            1.45934603        2.71693715       -1.31870892
 C           -1.12915066        2.55461101        0.92341921
 C           -0.33434099        3.30384474        0.05652896
 C           -2.49422304        0.57983417        0.86747980
 C           -2.23247708        1.86970635        0.41007096
 C           -2.32685415       -1.70998708        0.14841962
 C           -2.81674521       -0.42256372       -0.05595224
 C           -0.30029608       -2.67438894       -0.67628417
 C           -1.63622140       -2.31889587       -0.88728233
 C            1.98611713       -2.31181035       -1.34526391
 C            2.74747220       -1.19100122       -1.86509187
 C            0.64382664       -2.42382204       -1.68145939
 C            2.04714683        0.94236842       -2.81366469
 C            2.23001147       -0.49398727       -2.93934697
 C            0.95289066        1.32075959       -3.70035058
 C            0.33722484        3.07780913       -2.17532349
 C           -0.75673600        3.50959727       -1.31357116
 C            0.06323433        2.32347004       -3.31569096
 C           -2.79744765        2.27821249       -0.79561050
 C           -2.05636519        3.18470976       -1.66032896
 C           -3.21950307       -0.07118529       -1.34590920
 C           -3.41834880        1.27708841       -1.64444073
 C           -2.09010729       -2.08505381       -2.17505124
 C           -3.04667024       -1.00858136       -2.37016463
 C            0.22404949       -1.91723762       -2.91448655
 C            1.04400037       -1.01404751       -3.59509454
 C            0.45257784        0.09922962       -4.31815556
 C           -1.12228480       -1.99686087       -3.24797865
 C           -2.93174179       -0.58681321       -3.75540970
 C           -0.87510083        0.02302427       -4.71120747
 C           -1.66991979       -1.10454330       -4.26012093
 C           -1.22171236        2.35100382       -3.85836909
 C           -2.32658895        2.80948358       -3.03460959
 C           -3.32456664        1.75532538       -3.01495286
 C           -1.70269341        1.21221685       -4.62207816
 C           -2.99399595        0.82300881       -4.07323187
