   70
C70 / DATE: 7/ 1/2024 / Origin: Program Fullerene / C70 from database
 C            1.23382432        0.16508348        4.65146856
 C            2.46485121       -0.04497890        3.91926328
 C            2.48643946       -1.43351872        3.49318977
 C            0.40689484       -1.02087315        4.47534263
 C            1.15187739       -1.96577197        3.66116724
 C           -0.90102662       -0.58756332        4.01390727
 C            0.42419280        1.31669634        4.31751957
 C           -0.93935005        0.85363708        4.12356895
 C            0.77169145        2.11356509        3.15292648
 C            2.74433267        0.77162536        2.74754750
 C            1.82960432        1.73148526        2.32397235
 C            3.06946395       -1.47250531        2.16842225
 C            3.34511798       -0.10109382        1.76080349
 C            2.54147955       -2.34329980        1.22065587
 C            0.52757443       -2.53427472        2.55685040
 C            1.30410031       -2.95253437        1.46954946
 C           -1.43826325       -1.18280792        2.87758845
 C           -0.84496292       -2.34190661        2.38695498
 C           -2.30083443       -0.45349141        2.04945460
 C           -1.49832306        1.60553920        3.01998037
 C           -0.48128836        2.52034977        2.54145382
 C           -2.26227632        0.94917638        2.06839921
 C           -0.47847372        2.84286414        1.19053600
 C            1.77849656        2.07723893        0.97265720
 C            0.74831080        2.91298412        0.54326722
 C            3.23628465        0.21738199        0.41109524
 C            2.52132085        1.35478254        0.02582882
 C            2.95590152       -2.15620487       -0.09418062
 C            3.36997494       -0.82185760       -0.49869683
 C            2.20972477       -2.74890288       -1.19157484
 C            0.70016795       -3.71196669        0.46922549
 C            1.08457108       -3.50584806       -0.91628662
 C           -1.51405659       -3.06624647        1.41409962
 C           -0.74075503       -3.87961577        0.49507628
 C           -2.95056287       -1.11087973        0.99254789
 C           -2.56274226       -2.40960626        0.65536668
 C           -3.60141531       -0.35624567        0.01436646
 C           -2.54933802        1.64184986        0.90076348
 C           -1.61975307        2.58014963        0.42642197
 C           -3.48637617        1.08763730        0.04864154
 C           -1.63500977        2.99448259       -0.91293209
 C            0.77723072        3.40818585       -0.74851044
 C           -0.48456329        3.57167954       -1.44927183
 C            2.36501500        1.64628857       -1.33612597
 C            1.72341332        2.83564489       -1.68430232
 C            2.95585794       -0.62327330       -1.87073923
 C            2.15805557       -1.77306221       -2.26584323
 C            2.54228658        0.63281142       -2.29268108
 C            0.96568685       -1.54915291       -2.95138954
 C           -0.12763077       -3.25834366       -1.67999523
 C           -1.24360212       -3.64089998       -0.84862621
 C           -2.36088675       -2.73466257       -0.74931813
 C           -0.21687851       -2.10620784       -2.45936413
 C           -3.45540601       -0.75675404       -1.37568861
 C           -2.50318584       -1.71738359       -1.68177737
 C           -1.41908391       -1.37378511       -2.51315339
 C           -3.59860969        1.57734798       -1.30666756
 C           -2.61605820        2.52563617       -1.78489313
 C           -3.56489532        0.42509215       -2.19560816
 C           -1.50454083       -0.24596342       -3.34754903
 C           -2.23614858        2.08964055       -3.11935542
 C           -2.54345413        0.67040618       -3.18712759
 C           -0.21289738        3.43382127       -2.87078911
 C            1.17177877        3.01209510       -3.01617340
 C           -1.04365494        2.54299726       -3.66297543
 C            1.82025315        0.66671326       -3.48361516
 C            0.90309365       -0.42581473       -3.76226285
 C           -0.38499068        0.15845542       -4.06734699
 C            1.20079905        1.89427170       -3.92840056
 C           -0.16837364        1.57968103       -4.30665829
