   70
C70 / DATE: 7/ 1/2024 / Origin: Program Fullerene / C70 from database
 C            1.49573171        0.00872658        5.30808795
 C            0.70438099       -1.20685971        5.23155952
 C            1.56064995       -2.22956995        4.67311558
 C            2.62287472       -0.15517002        4.40620720
 C            2.71980293       -1.56051009        4.09041773
 C            2.45826513        0.78767438        3.31682743
 C            0.67712734        1.09044554        4.79374238
 C            1.36417367        1.67771403        3.65646832
 C           -0.53947220       -0.87810762        4.54852167
 C           -0.65853953        0.56991441        4.57819696
 C           -0.91420925       -1.57702569        3.39257278
 C            1.00869453       -3.09971988        3.65704479
 C           -0.28411228       -2.77597337        3.07256110
 C            2.79062805       -1.95394972        2.69660735
 C            1.96201840       -3.12883570        2.56411609
 C            2.56938128        0.36417647        1.99514088
 C            2.72234691       -0.99433162        1.68376806
 C            2.09449688        1.21848640        1.00474973
 C            0.58898510        2.18591264        2.61781697
 C            1.09683831        2.14232600        1.31803302
 C           -1.42195071        1.18052893        3.60169453
 C           -0.79323378        2.20201142        2.77941000
 C           -1.72188482       -0.95022339        2.43462469
 C           -2.16630654        0.34310896        2.68163630
 C           -1.82785157       -1.47439177        1.13451533
 C           -0.20703982       -3.16995297        1.68296524
 C            1.20052826       -3.26512940        1.34480385
 C           -1.03203412       -2.55462524        0.75007900
 C            2.39723980       -1.42024834        0.38977335
 C            1.61247729       -2.56506679        0.22219340
 C            2.27936592        0.86701425       -0.32538652
 C            2.40816717       -0.48558195       -0.64756210
 C            1.89027538        1.76713007       -1.31554428
 C            0.33873468        2.67767352        0.27570489
 C            0.88749037        2.69888534       -1.00922708
 C           -1.62774956        2.34071053        1.60481026
 C           -2.51192947        1.19274482        1.56404001
 C           -1.05418703        2.73246217        0.40562446
 C           -2.46596895       -0.73217333        0.12450119
 C           -2.74531626        0.62586389        0.32321942
 C           -2.47400822       -1.22603120       -1.19022308
 C           -0.62905473       -2.61240268       -0.57822486
 C            0.74143871       -2.57696141       -0.85446858
 C           -1.51554199       -2.18162438       -1.55525370
 C            2.04572175       -0.90787901       -1.93032972
 C            1.16710564       -1.98783895       -2.03697707
 C            2.15334512        1.41602031       -2.63795365
 C            2.15958092        0.00656195       -2.97422222
 C            1.52764335        2.13659243       -3.72863814
 C            0.10622151        3.24968609       -2.02535825
 C            0.47257843        3.06978132       -3.41544780
 C           -1.82692579        2.56711711       -0.74054626
 C           -2.70972447        1.48035397       -0.77767461
 C           -1.33054348        3.10542198       -1.91984658
 C           -3.10913362       -0.45907811       -2.17214777
 C           -3.15307730        0.97745699       -1.99190151
 C           -2.87210204       -0.71833148       -3.58078098
 C           -1.08641097       -2.28445807       -2.87681514
 C            0.32715366       -2.10492637       -3.13807888
 C           -1.82684635       -1.64450777       -3.94154350
 C            1.37870127       -0.16408987       -4.18896775
 C            1.00074344        1.15708216       -4.66575798
 C            0.46304637       -1.20186307       -4.26447317
 C           -0.87090129       -0.94645955       -4.78851954
 C           -0.72162696        2.66409410       -4.14177111
 C           -1.83253069        2.64826093       -3.20235598
 C           -2.74337745        1.60318239       -3.23746709
 C           -2.58850386        0.55275929       -4.23014591
 C           -0.40344979        1.46188719       -4.89504109
 C           -1.32841007        0.42412994       -4.94649953
