   70
C70 / DATE: 7/ 1/2024 / Origin: Program Fullerene / C70 from database
 C            1.67199548       -0.33341754        4.88929720
 C            0.81345436       -1.50223011        4.85765975
 C            1.28611326       -2.36350884        3.79112374
 C            2.63856607       -0.46081336        3.81220987
 C            2.38179509       -1.70178829        3.11073099
 C            2.60537719        0.76605073        3.04675562
 C            0.84999875        0.82494268        4.59342475
 C            1.51193004        1.58401427        3.54383642
 C           -0.52759108       -1.06737181        4.49768802
 C           -0.50623321        0.36941675        4.34315837
 C            0.13656029       -2.73187321        2.99784884
 C           -0.96834136       -1.86539123        3.37043278
 C            0.31949327       -2.94815316        1.64765954
 C            2.37056104       -1.68822080        1.71673839
 C            1.52575918       -2.56872457        1.04673670
 C            2.77152826        0.69648986        1.67428045
 C            2.81058164       -0.55246124        1.03812765
 C            2.37838135        1.80117032        0.93311263
 C            0.71066226        2.24282441        2.61047902
 C            1.23003020        2.49208305        1.33306770
 C           -1.17083487        0.92802091        3.26178580
 C           -0.67050796        2.11897613        2.75002046
 C           -1.69516274       -1.25194149        2.34384679
 C           -1.95150255        0.12145073        2.42170613
 C           -0.81679260       -2.91588027        0.86233725
 C           -1.72369250       -1.87833187        1.09153227
 C           -0.68948067       -3.44454911       -0.40477338
 C            1.60613267       -2.65463347       -0.34430518
 C            0.64758028       -3.45223897       -0.96337637
 C            2.86956236       -0.58042655       -0.35854592
 C            2.19584487       -1.59757525       -1.06191416
 C            2.79311786        1.85735200       -0.38575697
 C            3.20111371        0.61080142       -1.00215182
 C            1.97816290        2.56740427       -1.34897885
 C            0.39772500        3.07850535        0.37072230
 C            0.68533613        2.91707931       -0.98792011
 C           -1.48646053        2.82987614        1.89266908
 C           -0.87236832        3.49000754        0.75950081
 C           -2.64747303        0.74775512        1.38467677
 C           -2.65184932        2.14509392        1.37698414
 C           -2.29807541       -1.21020942        0.00348402
 C           -2.88181169        0.04384708        0.19473318
 C           -1.57804061       -2.99124439       -1.44733200
 C           -2.22888313       -1.77031074       -1.28316472
 C            0.51471512       -3.43492434       -2.39759709
 C           -0.90380157       -3.29247688       -2.69717818
 C            2.03411662       -1.50930085       -2.46218247
 C            1.22502412       -2.42113913       -3.13779964
 C            2.99424422        0.74765172       -2.42315351
 C            2.21612241        1.96003596       -2.64288977
 C            2.33876967       -0.32458802       -3.12870798
 C            1.07699247        1.60759874       -3.46687433
 C            1.33601745        0.28082607       -3.99162731
 C           -0.35441835        2.77729617       -1.91796589
 C           -0.20333891        1.92625571       -3.02267186
 C           -1.90803948        3.65166425       -0.24306610
 C           -3.06003391        2.87313973        0.19485154
 C           -1.61751748        3.27034888       -1.60923015
 C           -3.48288102        0.67766295       -0.89054777
 C           -3.54375885        2.12580274       -0.93950213
 C           -2.77317919        2.55104457       -2.09651381
 C           -2.55369803       -1.00140047       -2.41068470
 C           -1.30069037        1.19845655       -3.50693046
 C           -3.14450722        0.24142826       -2.22869140
 C           -2.54485705        1.37960628       -2.91129790
 C           -1.02725074       -2.35887101       -3.79075521
 C            0.31201573       -1.92347600       -4.15362547
 C            0.26459704       -0.49254897       -4.40488254
 C           -1.83093002       -1.17302368       -3.59166078
 C           -1.08597462       -0.03893554       -4.10896302
