   70
C70 / DATE: 7/ 1/2024 / Origin: Program Fullerene / C70 from database
 C            1.26436928        0.13182545        4.72635932
 C            2.49781469        0.01909430        3.98008190
 C            2.50134758       -1.29122187        3.35243603
 C            0.43970802       -1.01844974        4.37941100
 C            1.14740738       -1.79099821        3.37520454
 C           -0.88450279       -0.53004912        4.06331403
 C            0.46075051        1.32368558        4.54747641
 C           -0.90934990        0.89841404        4.32309418
 C            0.79706436        2.24978694        3.47965172
 C            2.78739184        0.99215529        2.93753171
 C            1.84141512        1.95420312        2.59782594
 C            3.13457361       -1.14335350        2.06845998
 C            3.45040652        0.26485261        1.87816254
 C            2.62108449       -1.83247299        0.98076976
 C            0.51201822       -2.07107442        2.16381921
 C            1.26417360       -2.20438005        0.98838962
 C           -1.51051747       -0.98102563        2.91257131
 C           -0.86694622       -1.89746907        2.07185647
 C           -2.49783696       -0.17495231        2.36741858
 C           -1.48381946        1.77198002        3.30621899
 C           -0.46322000        2.74376136        2.95213218
 C           -2.25724129        1.19710476        2.29733499
 C           -0.47717542        3.29063224        1.68239624
 C            1.78481103        2.42317102        1.28238225
 C            0.75505188        3.29135727        0.91815608
 C            3.41467002        0.75865185        0.57832189
 C            2.61625309        1.87440833        0.29340306
 C            3.22218191       -1.53366121       -0.22830723
 C            3.66843724       -0.16550042       -0.43324758
 C            2.61756855       -1.98924272       -1.45186900
 C            0.60100116       -2.46057185       -0.22544356
 C            1.33906672       -2.52832208       -1.41501276
 C           -1.53612830       -2.31012047        0.92017373
 C           -0.80454271       -2.52842484       -0.25871743
 C           -3.33418027       -0.75258424        1.43427309
 C           -2.89214626       -1.99903515        0.84357019
 C           -3.78632759        0.06774777        0.33634504
 C           -2.37264951        1.84351349        1.05879320
 C           -1.54459192        2.92376122        0.76515204
 C           -3.02626377        1.18823833        0.01049201
 C            0.38034023        3.42165942       -0.47564963
 C           -1.02168692        3.05286072       -0.58207748
 C            2.47136731        2.29206961       -1.03316871
 C            1.26212915        2.98561180       -1.44476987
 C            3.42617259        0.17870141       -1.82131234
 C            2.95658159       -1.02541612       -2.48747019
 C            2.84770877        1.40192355       -2.12082933
 C            2.12293379       -0.92156910       -3.59029766
 C            0.69233969       -2.72858298       -2.62668102
 C            1.12765098       -1.96103300       -3.78352020
 C           -1.47462873       -2.75877883       -1.47619904
 C           -0.75063154       -2.79234175       -2.66469432
 C           -3.59419442       -2.13508215       -0.40954120
 C           -4.22167027       -0.84949836       -0.69559240
 C           -2.84486604       -2.52137632       -1.57819992
 C           -3.94211234       -0.52147871       -2.07279831
 C           -3.32115662       -1.68924076       -2.66712660
 C           -2.56423032        1.36636474       -1.30503608
 C           -1.42155472        2.12820669       -1.54039871
 C           -3.08086870        0.60912838       -2.35234809
 C            0.73865502        2.29697314       -2.61034996
 C            1.81260428        1.48071166       -3.14253407
 C            1.48661563        0.35604800       -3.88785492
 C           -0.56128147        1.79146825       -2.59314812
 C           -0.04550619       -1.33974363       -4.36364736
 C           -1.20625677       -1.98783785       -3.79605791
 C           -2.34829921       -1.22309890       -3.63051506
 C           -2.19069807        0.21598892       -3.42994627
 C            0.08769323        0.09277728       -4.18473879
 C           -0.91427695        0.77914980       -3.49387810
