   70
C70 / DATE: 7/ 1/2024 / Origin: Program Fullerene / C70 from database
 C            1.33228179       -0.05521583        4.34474134
 C            2.58384368       -0.43242887        3.73136741
 C            2.57252681       -1.87248131        3.54548421
 C            0.48302799       -1.23635016        4.39802693
 C            1.24395532       -2.35954846        3.88848201
 C           -0.77836321       -0.89606708        3.76288977
 C            0.55855292        1.00591042        3.73228348
 C           -0.81064645        0.54931434        3.63813512
 C            1.07353251        1.72023832        2.65437070
 C            2.94086627        0.17439168        2.46439148
 C            2.19444355        1.23296410        1.96170922
 C            3.11387330       -2.15424065        2.22462652
 C            3.33084820       -0.88269518        1.54889155
 C            2.59768919       -3.21996961        1.50285712
 C            0.61769132       -3.25938269        3.03614851
 C            1.40403211       -3.89171852        1.99275514
 C           -1.24941125       -1.67192992        2.70505809
 C           -0.68197931       -2.92177057        2.46349153
 C           -2.02401161       -1.05969650        1.71543207
 C           -1.59929678        1.10752729        2.64607748
 C           -2.42085633        0.26277320        1.90481200
 C            0.19261038        2.56770774        1.97732678
 C           -1.18044090        2.30535318        2.06695800
 C            0.68747706        3.29127350        0.89647700
 C            2.33186054        1.53247701        0.61109653
 C            1.80008921        2.72892154        0.15846673
 C            3.01250723       -0.75368680        0.19503492
 C            2.59091142        0.49496651       -0.29169149
 C            2.47140244       -3.09864116        0.06285037
 C            2.81699826       -1.90703933       -0.57292768
 C            0.52635674       -4.13100879        0.86112563
 C           -0.73582794       -3.47371565        1.12175584
 C            1.24196168       -3.76394001       -0.34162413
 C           -2.10733127       -1.62635786        0.43690697
 C           -1.29845152       -2.71382592        0.10613808
 C           -2.82896272       -0.97840960       -0.57042428
 C           -3.31768173        0.83153696        1.01227200
 C           -3.50275505        0.20513658       -0.28347857
 C           -2.07944506        2.98076374        1.24627150
 C           -3.26757585        2.26949106        0.81035419
 C           -0.22254162        3.90270696       -0.05716313
 C           -1.59101049        3.75816908        0.12038362
 C            1.53992166        2.90949933       -1.25353678
 C            0.35766035        3.75073146       -1.38183864
 C            2.30385964        0.65633997       -1.65327782
 C            1.72914507        1.84208356       -2.12343134
 C            2.43513474       -1.77475128       -1.90169293
 C            2.33711618       -0.45504182       -2.48741063
 C            0.53169142       -3.21177319       -1.40056879
 C           -0.80113864       -2.83206924       -1.19469090
 C            1.27996928       -2.53217139       -2.35493607
 C           -2.56734566       -1.28655643       -1.90259514
 C           -1.50069845       -2.21820072       -2.22827644
 C           -2.55006633       -0.21728367       -2.88990019
 C           -3.55050749        1.25766504       -1.28933996
 C           -3.46048371        2.53445583       -0.60363468
 C           -2.44907239        3.48453381       -1.02507660
 C           -2.87195603        1.08010490       -2.49223057
 C           -0.47168161        3.59712497       -2.48533802
 C           -1.88968745        3.33807827       -2.28794671
 C           -2.23933944        2.17319411       -3.08986864
 C            1.09690390        1.86095853       -3.36715920
 C           -0.02220475        2.76080357       -3.58345839
 C           -1.15101239        1.95638590       -4.02615094
 C            1.39399475       -0.54822240       -3.58813870
 C            0.61048298       -1.75654416       -3.38171982
 C           -0.77520034       -1.68521202       -3.37068670
 C           -1.43425308       -0.46066295       -3.79401430
 C            0.76696276        0.60886486       -4.02181296
 C           -0.67094580        0.60616235       -4.24940867
