   70
C70 / DATE: 7/ 1/2024 / Origin: Program Fullerene / C70 from database
 C            1.60732088        0.03615250        4.57167399
 C            0.80849985       -1.17184219        4.48234148
 C            1.41346530       -2.03948263        3.48848665
 C            2.64755878       -0.04580316        3.56233356
 C            2.55955423       -1.33916597        2.92322360
 C            2.54702089        1.12573095        2.72557579
 C            0.74977274        1.15670379        4.22803664
 C            1.36646405        1.87073644        3.12511727
 C           -0.57369634       -0.77948302        4.30362121
 C           -0.59764676        0.65238291        4.04425506
 C           -1.39211378       -1.60223036        3.54909982
 C            0.59221854       -2.77623540        2.63592273
 C           -0.79748378       -2.67744707        2.76069937
 C            1.13665592       -3.23306931        1.43840302
 C            2.78301687       -1.43021189        1.55239559
 C            2.31824912       -2.56850534        0.90943364
 C            2.78738632        0.99864660        1.36828104
 C            2.99912680       -0.26644479        0.80051045
 C            2.32460106        2.01705022        0.54858670
 C            0.54417774        2.38222815        2.12233905
 C            1.08908011        2.59527286        0.84968327
 C           -1.33866756        1.14116817        2.97092564
 C           -0.83698654        2.22571095        2.24868347
 C           -2.42898705       -0.99790263        2.73487424
 C           -2.35135269        0.35535991        2.41147854
 C           -1.64806288       -2.87976800        1.59355114
 C           -2.76341994       -1.95437393        1.69881210
 C            0.26541597       -3.53127182        0.31448570
 C           -1.06497939       -3.12469020        0.35343016
 C            2.23619536       -2.59377069       -0.53827137
 C            1.04526381       -3.34676933       -0.89478246
 C            3.11331305       -0.35157237       -0.59300235
 C            2.56858212       -1.45501224       -1.26510135
 C            2.81077550        2.06191974       -0.74576602
 C            3.34827557        0.83081620       -1.29257627
 C            2.00773776        2.68179647       -1.77817794
 C            0.26013269        3.05575960       -0.18025722
 C            0.66094547        2.92573607       -1.51722128
 C           -1.65947874        2.84004572        1.31814201
 C           -1.05338760        3.39605927        0.12249231
 C           -3.05769594        0.83388624        1.30526209
 C           -2.87402504        2.15688611        0.91388164
 C           -3.36562590       -1.49189706        0.54315105
 C           -3.64275298       -0.07099642        0.41529511
 C           -1.70663179       -2.70672153       -0.81913147
 C           -2.87930115       -1.95768445       -0.74376716
 C            0.39097585       -3.04087442       -2.07316550
 C           -1.03387603       -2.75584839       -2.03838962
 C            2.08899668       -1.32766425       -2.57568303
 C            1.00278207       -2.09772554       -2.99045187
 C            3.15011598        0.86833813       -2.72582495
 C            2.41442281        2.08561923       -3.03685908
 C            2.46123323       -0.23663634       -3.35317953
 C            1.39583195        1.75079319       -4.00405610
 C            1.49144713        0.32674664       -4.27785099
 C           -0.29633812        2.77640166       -2.53842994
 C            0.01701729        2.03967438       -3.67663176
 C           -2.04557440        3.35409923       -0.92686082
 C           -3.15920696        2.54664179       -0.45601537
 C           -1.64648943        2.85165073       -2.22136329
 C           -3.69014038        0.22985197       -1.00855521
 C           -3.10922448       -0.89744025       -1.71559362
 C           -3.41633381        1.51437799       -1.44303535
 C           -2.48755383        1.70801289       -2.54248857
 C           -1.30668830       -1.73399579       -3.04016479
 C           -0.06833873       -1.47213724       -3.74876447
 C            0.14327079       -0.21899482       -4.29600071
 C           -0.77678187        0.85729680       -3.96781783
 C           -2.17172171       -0.68742536       -2.72536733
 C           -1.90633640        0.61154073       -3.18388049
