   70
C70 / DATE: 7/ 1/2024 / Origin: Program Fullerene / C70 from database
 C            1.18276699       -0.12411666        4.24987555
 C            2.43049203       -0.47175019        3.61664733
 C            2.40429056       -1.89940013        3.33334801
 C            0.36810890       -1.32843454        4.32980378
 C            1.07843990       -2.39282353        3.64913820
 C           -0.97208242       -0.97797270        3.89242377
 C            0.36735227        0.91096211        3.64948813
 C           -1.00759855        0.46679355        3.73058860
 C            0.78173442        1.55797279        2.48588902
 C            2.80098203        0.20923421        2.39125774
 C            1.95472944        1.16349331        1.82636987
 C            2.92604942       -2.08489392        1.99181301
 C            3.39013752       -0.78769120        1.52360659
 C            2.26910978       -2.92668454        1.09537711
 C            0.40413959       -3.16196876        2.71149491
 C            1.05282889       -3.50981489        1.45364986
 C           -1.63522989       -1.77633078        2.96268858
 C           -1.00200314       -2.90007568        2.43135226
 C           -2.72284622       -1.23178401        2.28750385
 C           -1.91959004        1.01763774        2.84322944
 C           -2.93589123        0.20494775        2.34648963
 C           -0.17123648        2.29043003        1.78255505
 C           -1.52903480        2.12572808        2.09565663
 C            0.20067313        2.92663405        0.59922512
 C            2.12412626        1.47889495        0.47374085
 C            1.29401721        2.43548394       -0.12436960
 C            3.40447507       -0.54676606        0.15920498
 C            2.98598455        0.69928761       -0.30839414
 C            2.59076646       -2.81560208       -0.25381036
 C            3.32480051       -1.64272851       -0.69366332
 C            1.58191835       -3.09797206       -1.26481922
 C            0.01019123       -3.67591287        0.45122489
 C           -1.25774559       -3.28651874        1.05121003
 C            0.27125178       -3.34837741       -0.87490654
 C           -3.02260853       -1.66310707        0.92960277
 C           -2.18735586       -2.57781936        0.29594100
 C           -3.63495514        0.59608875        1.13119055
 C           -3.50913837       -0.50570239        0.19196709
 C           -2.49340827        2.73691873        1.30398769
 C           -3.48350790        1.89061410        0.66217152
 C           -0.67550053        3.84149616        0.02349171
 C           -2.08428860        3.73209054        0.33423971
 C           -0.59158381        4.10387288       -1.39388322
 C            1.47444741        2.78609074       -1.47228218
 C            0.46489664        3.46837029       -2.14692517
 C            3.11495932        0.96720663       -1.66446909
 C            2.36280956        2.05586061       -2.25341815
 C            3.02037107       -1.43158002       -2.09592884
 C            1.84872553       -2.24048955       -2.41248592
 C            3.10822278       -0.14579615       -2.60352249
 C            0.78740662       -1.68375846       -3.12933823
 C           -0.77714467       -2.93331550       -1.68932978
 C           -2.03118869       -2.51039161       -1.08610538
 C           -0.51592374       -2.06666169       -2.82843445
 C           -3.03835200       -0.27179256       -1.09920180
 C           -2.50206477       -1.33654856       -1.80793411
 C           -1.58207000       -1.07765373       -2.89511712
 C           -3.31939934        2.09062973       -0.76350770
 C           -2.77445175        3.42386284       -0.90899809
 C           -1.85204485        3.67727194       -1.98708722
 C           -2.82111868        1.03920186       -1.53749027
 C           -0.16348368        2.82447468       -3.29000286
 C           -1.27122938        0.23302553       -3.23243808
 C           -1.53704326        2.59700393       -2.89824642
 C           -1.94117159        1.29188862       -2.60712260
 C            1.92032611        1.62091672       -3.56792930
 C            2.23618534        0.21254542       -3.70078711
 C            0.98793541       -0.51151680       -3.85637138
 C            0.52130838        1.79543431       -3.91045705
 C           -0.08466865        0.47138756       -3.92866764
