   70
C70 / DATE: 7/ 1/2024 / Origin: Program Fullerene / C70 from database
 C            0.96808784       -0.04645461        5.01756795
 C            2.26063564       -0.29707060        4.40498587
 C            2.24211321       -1.65328645        3.88852762
 C            0.15186071       -1.23788586        4.83124028
 C            0.86735973       -2.11888433        3.93326834
 C           -1.17689579       -0.81291614        4.46523494
 C            0.18438409        1.09531027        4.57914743
 C           -1.18103841        0.64232068        4.40727058
 C            0.71687395        1.98618399        3.65484126
 C            2.71728625        0.57087633        3.33486027
 C            2.03048922        1.74514110        3.06532056
 C            2.92172329       -1.65323707        2.60639739
 C            3.14513360       -0.26688787        2.22465667
 C            2.46699326       -2.53101032        1.63845526
 C            0.27716289       -2.55761040        2.74555230
 C            1.12523386       -3.08197276        1.77661919
 C           -1.74498944       -1.29557888        3.22158642
 C           -0.99918558       -2.10574837        2.36543172
 C           -1.90982759        1.02597945        3.20985342
 C           -2.47640385       -0.18719884        2.65097683
 C           -0.13780390        2.54626854        2.61497268
 C           -1.37613601        1.97330047        2.33291296
 C            1.99025593        2.23552227        1.70166199
 C            0.72737613        2.92420716        1.51745215
 C            2.88335649        0.13491118        0.91053308
 C            2.47066320        1.44816570        0.65565260
 C            2.62472522       -2.16732579        0.24552025
 C            2.78864523       -0.83086060       -0.10062749
 C            0.62172972       -3.33340777        0.44388961
 C            1.66709506       -2.95815228       -0.49519260
 C           -1.40961875       -2.20228691        1.02586532
 C           -0.69111642       -3.00685933        0.13596674
 C           -2.73244953       -0.19920459        1.29480080
 C           -2.39837769       -1.32625857        0.54603954
 C           -1.85589527        1.99901402        1.01765414
 C           -2.77863979        1.02283119        0.64504175
 C            0.21301185        2.96914545        0.23466421
 C           -1.13382816        2.67199738        0.02071647
 C            2.10582673        1.80545655       -0.64208518
 C            1.10202728        2.76481273       -0.80797608
 C            2.45968468       -0.43937739       -1.39893437
 C            2.38188211        0.92286983       -1.68270718
 C            1.28592573       -2.52431791       -1.75493634
 C            1.87761072       -1.37164234       -2.27255052
 C           -1.04314399       -3.02844836       -1.20857727
 C            0.01504586       -2.88093250       -2.19565802
 C           -2.77048694       -1.34227197       -0.80190666
 C           -2.17693614       -2.25409938       -1.66787904
 C           -3.30961243        1.04132001       -0.63001840
 C           -3.43228349       -0.22838472       -1.32348446
 C           -1.61909873        2.67867091       -1.29607413
 C           -2.80720271        2.00962892       -1.58176732
 C            0.67070155        3.08759674       -2.08233144
 C           -0.75603579        3.02720441       -2.34275477
 C            2.18779264        1.34596624       -2.99318692
 C            1.36586828        2.51788866       -3.21848353
 C            1.54644688       -0.98696509       -3.56824458
 C            1.83523461        0.36544407       -3.99920981
 C           -0.54775260       -2.23691918       -3.37010055
 C           -1.92709370       -1.89291841       -3.05979249
 C            0.24211103       -1.35374107       -4.09628909
 C           -3.37453381        0.05032192       -2.74732201
 C           -3.02525683        1.45389256       -2.90712223
 C           -2.48642333       -0.73350215       -3.58191647
 C           -0.93693993        2.45280723       -3.67124686
 C            0.37716673        2.19078821       -4.23098817
 C            0.67730024        0.86204808       -4.72798467
 C           -0.35363438       -0.16047779       -4.67578477
 C           -1.96444567        1.54474813       -3.88892018
 C           -1.65973478        0.19145623       -4.34308501
