   70
C70 / DATE: 7/ 1/2024 / Origin: Program Fullerene / C70 from database
 C            1.30134030        0.14673030        5.10510681
 C            0.53289486       -1.03635271        4.75252768
 C            1.43475747       -1.96747967        4.12019013
 C            2.56148516        0.07481276        4.38762480
 C            2.71282169       -1.28984646        3.93704443
 C            2.57065318        1.13677960        3.39366883
 C            0.58229212        1.30325559        4.60511007
 C            1.46391408        2.02638284        3.71043674
 C           -0.63355549       -0.60155360        4.01316517
 C           -0.69052373        0.84687457        4.07901826
 C           -0.97612228       -1.21519266        2.80950562
 C            1.06115542       -2.53620290        2.83663340
 C           -0.12546154       -2.15567138        2.21033047
 C            3.11279624       -1.51334037        2.56549842
 C            2.26844638       -2.57004736        2.04161494
 C            2.84769539        0.82849463        2.05684560
 C            3.38308955       -0.42912165        1.73436406
 C            2.35124029        1.66390010        1.04328019
 C            0.87792080        2.74556880        2.68284698
 C            1.47944244        2.69841062        1.36430221
 C           -1.23380039        1.52066926        2.99126484
 C           -0.55856641        2.62755144        2.48117836
 C           -1.90861747       -0.56950388        2.00952454
 C           -2.06602076        0.81487358        2.12855018
 C           -2.32677892       -1.19170230        0.83986390
 C           -0.25226677       -2.41053597        0.83787717
 C           -1.41118944       -1.99834512        0.16217475
 C            2.14557973       -2.65958740        0.66386214
 C            0.87327913       -2.83502491        0.11741165
 C            3.62539394       -0.73669225        0.40170437
 C            3.10518240       -1.99892910       -0.09823702
 C            2.50998673        1.31369115       -0.29698476
 C            3.34705648        0.25279480       -0.61497876
 C            1.63045322        1.81932900       -1.26399296
 C            0.44739887        3.06616677        0.41090969
 C           -0.82374371        3.03651259        1.11149060
 C            0.50411833        2.54686273       -0.87783263
 C           -2.66004028        1.50067195        1.07581211
 C           -1.91654696        2.50219716        0.44454553
 C           -3.38817759       -0.61697395        0.15180019
 C           -3.60581495        0.80815131        0.33001984
 C           -3.57415249       -0.91751177       -1.25256136
 C           -1.52761087       -2.18875765       -1.22263580
 C           -2.55645521       -1.57044027       -1.94067806
 C            0.77505638       -3.03134337       -1.25408055
 C           -0.48874525       -2.79510537       -1.92069639
 C            2.90398117       -1.85869412       -1.52880865
 C            3.15696871       -0.46451647       -1.86417763
 C            1.83239621       -2.51953560       -2.11402139
 C            1.72822425        1.38129943       -2.57975678
 C            2.42197457        0.13905438       -2.87218306
 C            0.55766134        1.44410413       -3.43579725
 C           -0.68147133        2.43391850       -1.61678249
 C           -1.90977099        2.55147529       -0.94765607
 C           -0.62614538        1.99422866       -2.94807860
 C           -4.01401409        1.35460696       -0.94879822
 C           -4.22772021        0.23747309       -1.84817650
 C           -3.09947440        2.26361568       -1.60375069
 C           -1.79959862        1.75749862       -3.66169673
 C           -3.82027319        0.67254233       -3.16793684
 C           -3.07914482        1.91830434       -3.00733332
 C           -2.42664685       -1.39291827       -3.32204395
 C           -3.00134261       -0.22128509       -3.95854230
 C           -1.89016644        0.55715492       -4.47430119
 C           -0.19050716       -2.35983892       -3.27464022
 C            1.20612948       -1.95648288       -3.29717029
 C            1.54204725       -0.66858616       -3.70157165
 C            0.50468917        0.21028857       -4.21027171
 C           -1.13300598       -1.59706667       -3.94717606
 C           -0.73605012       -0.32206017       -4.53375482
