   70
C70 / DATE: 7/ 1/2024 / Origin: Program Fullerene / C70 from database
 C            1.62583100       -0.00936879        4.66969099
 C            0.81444864       -1.20436269        4.53810295
 C            1.43142962       -2.05814561        3.54081935
 C            2.68564569       -0.08152406        3.67762394
 C            2.56655180       -1.33643992        2.97989805
 C            2.63569639        1.12401535        2.89370146
 C            0.78675646        1.12884211        4.33550534
 C            1.46286209        1.88111861        3.30865516
 C           -0.55574069       -0.78837517        4.32944065
 C           -0.54113791        0.63990975        4.04774690
 C           -1.36922406       -1.60182045        3.55780850
 C            0.61859964       -2.79275049        2.67838098
 C           -0.77082576       -2.68743368        2.78708950
 C            1.17502098       -3.22787268        1.47969893
 C            2.75825168       -1.37296175        1.60178078
 C            2.33676532       -2.52531228        0.95901354
 C            2.91315142        1.06395303        1.53197674
 C            2.87482688       -0.17668509        0.86539393
 C            2.60799480        2.21261783        0.81996578
 C            0.71405526        2.49618731        2.31296148
 C            1.44149447        2.97361299        1.23460040
 C           -1.20572702        1.10991787        2.91603866
 C           -0.61491224        2.09390889        2.09838916
 C           -2.37441219       -0.98102588        2.71567951
 C           -2.29958844        0.38125501        2.44651913
 C           -1.61265759       -2.90589254        1.61731705
 C           -2.66178427       -1.89648966        1.62606255
 C            0.31873695       -3.56276705        0.35233196
 C           -1.04116751       -3.28280639        0.40714454
 C            2.27175980       -2.55898596       -0.47966711
 C            1.06629245       -3.27786405       -0.86251506
 C            2.80664114       -0.21211650       -0.54595343
 C            2.63623601       -1.44123615       -1.20937367
 C            2.63287396        2.18967318       -0.62012365
 C            2.82620008        0.98939821       -1.27964497
 C            0.75238169        3.41343359        0.04484006
 C            1.59649949        3.09285074       -1.09459127
 C           -1.29757657        2.53629125        0.95312042
 C           -0.61673952        3.22687490       -0.05951685
 C           -3.04350547        0.87788519        1.38916346
 C           -2.59275891        2.08049701        0.72211018
 C           -3.12768368       -1.38237802        0.41938397
 C           -3.51752381       -0.04566386        0.36672208
 C           -1.72901400       -3.01688424       -0.77188648
 C           -2.82036896       -2.05415285       -0.75999440
 C            0.39559100       -2.89142943       -2.02029592
 C           -0.99697045       -2.85334762       -2.01993866
 C            2.31462477       -1.46683568       -2.56044055
 C            1.09609960       -2.14986051       -2.96923604
 C            2.57775041        0.98775260       -2.64788396
 C            2.43923667       -0.26540327       -3.34576119
 C            1.00020270        2.85159553       -2.32928098
 C            1.58790705        1.91326929       -3.18366309
 C           -1.18652380        3.36420591       -1.32445615
 C           -0.33840929        3.20733559       -2.49904270
 C           -3.11630568        2.03904999       -0.63046869
 C           -3.51989980        0.66518442       -0.90219794
 C           -2.47684162        2.76521058       -1.61837888
 C           -2.79874988       -1.33660742       -2.02521237
 C           -1.69558398       -1.85653954       -2.81903428
 C           -3.08370331        0.02356288       -2.06132894
 C            0.37648560       -1.26140317       -3.86792139
 C            1.27507020       -0.17402704       -4.21206725
 C            0.77867611        1.18550029       -4.15483818
 C           -0.96983228       -0.99338873       -3.63381514
 C           -1.12840856        2.56346522       -3.53160868
 C           -2.41377758        2.20854576       -2.95594532
 C           -2.60292117        0.77943407       -3.12662899
 C           -0.59101244        1.39058160       -4.18870418
 C           -1.48735937        0.27322165       -3.91326173
