   70
C70 / DATE: 7/ 1/2024 / Origin: Program Fullerene / C70 from database
 C            1.50473909        0.03939999        4.54734475
 C            0.70904025       -1.13771928        4.26766468
 C            1.43468987       -1.96631126        3.32318559
 C            2.69331046       -0.03105190        3.71838852
 C            2.58737326       -1.20699216        2.87085197
 C            2.84602001        1.25599810        3.07678481
 C            0.73960933        1.19546262        4.11317907
 C            1.57764812        1.95830971        3.21599962
 C           -0.61826139       -0.69817388        3.88509654
 C           -0.54076395        0.72822754        3.62213205
 C           -1.30927171       -1.48263415        2.97582643
 C            0.68762277       -2.65455650        2.38131236
 C           -0.69824791       -2.65309918        2.52526965
 C            1.21569880       -2.81489111        1.10373762
 C            2.82315342       -1.07123800        1.50092350
 C            2.07026544       -1.83240623        0.59874107
 C            3.46291521        1.28480182        1.83646416
 C            3.51117578        0.05395836        1.05219236
 C            3.09643189        2.34395326        0.91756136
 C            1.01113445        2.52004479        2.07759988
 C            1.87727695        2.99611963        1.09739450
 C           -1.01419464        1.20528012        2.40094258
 C           -0.31273651        2.20935343        1.72508802
 C           -2.22498619       -0.85757209        2.13649175
 C           -1.96659899        0.45043046        1.71148325
 C           -3.07675233       -1.66602276        1.40032052
 C           -1.43762657       -3.51678970        1.72729673
 C           -2.74043856       -3.07437773        1.26312272
 C            0.54858247       -3.65692659        0.22526807
 C           -0.76434219       -4.15257811        0.60839042
 C            0.49486844       -3.30833932       -1.17961168
 C            1.98078818       -1.45443975       -0.75259484
 C            1.22467671       -2.22149971       -1.64772217
 C            3.43808478        0.42628584       -0.34890242
 C            3.45926037        1.87808788       -0.40792718
 C            2.59055718       -0.27394768       -1.19833816
 C            2.89628876        2.51329630       -1.50243789
 C            1.34687907        3.71688102        0.03862335
 C            2.00454556        3.63153955       -1.25397529
 C           -0.83649241        2.71897020        0.53629597
 C           -0.08347453        3.64290872       -0.19212152
 C           -2.44590786        0.90388937        0.47543769
 C           -1.94042228        2.10010675       -0.05953885
 C           -3.55505184       -1.20490557        0.11756002
 C           -3.33009910        0.10730320       -0.27281579
 C           -2.86501882       -3.43419653       -0.14023938
 C           -1.63704657       -4.06921333       -0.55102115
 C           -0.88151520       -3.46610384       -1.62889317
 C           -3.29442678       -2.25328232       -0.85631484
 C           -1.44705703       -2.46021537       -2.41470264
 C           -2.68733371       -1.89481825       -2.06037330
 C            0.82405955       -1.65930171       -2.85426025
 C           -0.57425067       -1.75901121       -3.24413623
 C            2.17720553        0.32743293       -2.39129583
 C            2.29635276        1.70592193       -2.55123534
 C            1.30082716       -0.34531657       -3.22831819
 C            0.97686305        3.62503516       -2.27775631
 C           -0.30402796        3.79788962       -1.62180010
 C            1.17444747        2.44962239       -3.10681592
 C           -2.36231448        2.54097294       -1.31397440
 C           -1.40814423        3.18998080       -2.18922565
 C           -3.49478329        0.36366224       -1.62742204
 C           -3.05051130       -0.64924087       -2.57147881
 C           -3.13776100        1.65623561       -2.15249169
 C           -0.96847413       -0.49426940       -3.83600341
 C            0.19223905        0.38661251       -3.82301732
 C            0.05571994        1.74964536       -3.55349898
 C           -1.21038331        2.29142854       -3.31872394
 C           -2.22463645        0.01303307       -3.56271769
 C           -2.38699723        1.44336031       -3.38226919
