   70
C70 / DATE: 7/ 1/2024 / Origin: Program Fullerene / C70 from database
 C            1.32847024        0.15724429        4.87364726
 C            0.56026958       -1.05590699        4.66865320
 C            1.47980029       -2.06001415        4.18500470
 C            2.58533189        0.00437639        4.15650307
 C            2.72372953       -1.39158195        3.82350870
 C            2.60083570        0.97685832        3.08018442
 C            0.60042717        1.24323899        4.24847417
 C            1.49489478        1.88823783        3.31304030
 C           -0.59531468       -0.72436063        3.84900841
 C           -0.64452249        0.72130723        3.72009683
 C           -0.89550087       -1.50453599        2.73287334
 C            1.07764572       -2.85454816        3.04546930
 C           -0.19489144       -2.69975181        2.50973954
 C            3.02115547       -1.74797420        2.45024147
 C            2.19802737       -2.89779346        2.12419910
 C            2.86722502        0.57766147        1.76339034
 C            3.19452904       -0.76044562        1.48232656
 C            2.48213409        1.44501590        0.72706751
 C            0.93207401        2.48236093        2.20011301
 C            1.72199774        2.56888387        1.06578144
 C           -1.10813078        1.26567394        2.52794112
 C           -0.44787756        2.37928600        2.01058782
 C           -1.64346848       -0.93220218        1.69498978
 C           -1.81679583        0.45576277        1.64464086
 C           -2.06469465       -1.72539072        0.62694786
 C           -0.44500757       -3.40619178        1.34549358
 C           -1.54974445       -3.01051818        0.50242225
 C            1.93290428       -3.17515456        0.78466329
 C            0.68193619       -3.70276289        0.46918631
 C            3.24547097       -1.18803890        0.16185303
 C            2.63313909       -2.46328480       -0.18819795
 C            2.49886445        1.00841998       -0.60357395
 C            2.96857511       -0.25369577       -0.90894743
 C            1.77549771        1.70219129       -1.57024651
 C            1.26596468        3.41312896        0.06609514
 C            1.47215643        3.02867053       -1.31285088
 C           -0.98218128        3.00238670        0.88577186
 C           -0.11964147        3.81984360        0.15511165
 C           -2.34842212        1.04398673        0.49757651
 C           -2.05343734        2.38856381        0.22779143
 C           -2.69394966       -1.13878966       -0.47198395
 C           -2.94096791        0.23453237       -0.47737237
 C           -2.81845509       -1.86671484       -1.66050480
 C           -1.25877746       -3.53177447       -0.81763795
 C            0.19101905       -3.66307886       -0.89968896
 C           -1.94764435       -3.00639450       -1.89405213
 C            2.09794850       -2.34175885       -1.53606641
 C            2.34541829       -0.98351099       -1.99654082
 C            0.89906544       -2.95982027       -1.87549829
 C            1.06569095        0.98831301       -2.54955962
 C            1.38612082       -0.35391103       -2.78722086
 C           -0.04562427        1.56325741       -3.19044856
 C            0.45649410        3.69932634       -2.09847782
 C           -0.50108262        4.27770375       -1.16369809
 C           -0.29568234        2.92936459       -3.06377307
 C           -2.62777644        3.02317527       -0.87240541
 C           -1.82764930        3.95895621       -1.64137695
 C           -1.66952377        3.38778384       -2.96555793
 C           -3.50151494        0.80888012       -1.61591480
 C           -3.37098404        2.23730514       -1.83309752
 C           -2.72817796        2.41799420       -3.13082075
 C           -2.93852661       -1.16326911       -2.92604314
 C           -1.03446673        0.74345516       -3.74604189
 C           -3.25753280        0.18250933       -2.90103431
 C           -2.37793646        1.09572425       -3.60275993
 C           -1.20518497       -2.73236469       -3.10754671
 C            0.22401434       -2.50432628       -3.00491503
 C            0.49471369       -1.15728851       -3.49022942
 C           -1.80213572       -1.56894601       -3.73565452
 C           -0.75031730       -0.59527971       -3.98065646
