   70
C70 / DATE: 7/ 1/2024 / Origin: Program Fullerene / C70 from database
 C            1.67817549       -0.15598503        5.81946324
 C            0.82719855       -1.30803947        6.06229142
 C            1.34277868       -2.40899374        5.27043900
 C            2.62468715       -0.50936303        4.77272335
 C            2.44143283       -1.90520829        4.45925956
 C            2.47730201        0.45150052        3.69583532
 C            0.83759380        0.91032343        5.30467276
 C            1.43910771        1.39325267        4.07326499
 C           -0.50148170       -0.98893899        5.56435092
 C           -0.53201132        0.42934321        5.25660582
 C            0.29191123       -2.82822555        4.35958895
 C           -0.83589466       -1.93415046        4.50798794
 C            2.16204988       -2.25590563        3.08086243
 C            0.88226737       -2.93576841        3.04881172
 C            2.51141858        0.02659009        2.36767809
 C            2.41220206       -1.33684098        2.05811391
 C            2.07357821        0.93231117        1.40585851
 C            0.60580356        1.86796595        3.06592180
 C            1.08129490        1.85042889        1.75622941
 C           -1.32079305        0.84343665        4.19439176
 C           -0.77302034        1.80696515        3.25527596
 C           -1.45624052       -1.45476593        3.35245235
 C           -1.97616298       -0.16625171        3.37701241
 C            0.08993471       -2.67782003        1.94559802
 C           -1.13393969       -2.01932119        2.11023478
 C            1.90677714       -1.66472988        0.79588773
 C            0.76075917       -2.45615729        0.75688338
 C            2.19017269        0.57917563        0.06470569
 C            2.10926232       -0.77087228       -0.26014687
 C            1.78370957        1.50346176       -0.88610923
 C            0.25618915        2.33350536        0.74603353
 C            0.77401846        2.40037349       -0.53856014
 C           -1.62996604        1.75052129        2.08499163
 C           -2.32141861        0.47688948        2.12250114
 C           -1.11886534        2.14530043        0.85973219
 C           -1.76437960       -1.54073121        0.95089530
 C           -2.34181088       -0.26840221        0.94962301
 C            0.00355974       -2.42424345       -0.39213951
 C           -1.33169469       -2.04177313       -0.27570871
 C            1.62372852       -1.12498131       -1.52957121
 C            0.65887617       -2.13266121       -1.57690610
 C            1.90215306        1.16033254       -2.22877373
 C            1.68095300       -0.18101406       -2.56959312
 C            1.58231813        2.15712399       -3.14442002
 C           -0.09463124        2.78813086       -1.54743987
 C            0.47870751        3.02769497       -2.78545733
 C           -1.79607274        1.71816446       -0.27981846
 C           -2.36131426        0.43997941       -0.25850596
 C           -1.38019018        2.24282548       -1.50002165
 C           -1.96650390       -1.60415931       -1.43326373
 C           -2.42058513       -0.28016064       -1.45208069
 C           -0.07011326       -2.32353605       -2.73632522
 C           -1.50673920       -2.16267416       -2.61877772
 C            1.14006288       -0.50860075       -3.82732174
 C            0.33334097       -1.63923929       -3.94127666
 C            1.43535008        1.81114753       -4.53933099
 C            1.14242013        0.43356483       -4.86074850
 C           -0.39323214        3.12051515       -3.93387261
 C            0.36232356        2.63505097       -5.07259574
 C           -1.94917850        1.74206273       -2.67288958
 C           -2.43810910        0.42722153       -2.66386384
 C           -1.63851837        2.38544882       -3.87381183
 C           -1.98949469       -1.63217570       -3.87188205
 C           -0.85487929       -1.59996083       -4.77711299
 C           -2.53965380       -0.29942462       -3.85330426
 C            0.05620175        0.44560199       -5.83465761
 C           -0.51672270        1.77831092       -5.84451090
 C           -1.78704700        1.69356305       -5.13922919
 C           -1.05022370       -0.46917664       -5.65579496
 C           -2.16873207        0.30216806       -5.12035530
