   70
C70 / DATE: 7/ 1/2024 / Origin: Program Fullerene / C70 from database
 C            1.28884074       -0.02396567        4.69117803
 C            2.57544223       -0.31292875        4.08597509
 C            2.53565089       -1.67484781        3.58212508
 C            0.46621227       -1.21536058        4.57866438
 C            1.19152730       -2.18952500        3.78160357
 C           -0.85352781       -0.80689966        4.13876366
 C            0.51544865        1.09813055        4.18920841
 C           -0.78606723        0.59997291        3.77535134
 C            1.13978853        2.05381163        3.40409434
 C            3.05197194        0.54388072        3.01507343
 C            2.44823861        1.77529906        2.81400521
 C            3.08780467       -1.67278560        2.24150188
 C            3.33309743       -0.29103778        1.85851603
 C            2.54208780       -2.53273244        1.30570538
 C            0.53750610       -2.81609138        2.72086022
 C            1.26584614       -3.17901399        1.58798682
 C           -1.56100609       -1.66392125        3.31644506
 C           -0.85383956       -2.75105982        2.64882847
 C           -2.46284680       -1.09332472        2.33904631
 C           -1.34299948        1.03109286        2.56525153
 C           -2.26194724        0.21552192        1.89937444
 C            0.35777066        2.73736161        2.39201027
 C           -0.82657592        2.16252677        1.92644398
 C            2.43326520        2.33043465        1.47395076
 C            1.31252662        3.24800386        1.43032819
 C            2.96923526        0.15024326        0.58186081
 C            2.66414052        1.49984065        0.37581640
 C            2.51853719       -2.12567139       -0.08424343
 C            2.69602311       -0.78440473       -0.42205377
 C            0.58531579       -3.37759492        0.31504953
 C            1.45578908       -2.87086371       -0.72862112
 C           -1.53122836       -2.99125163        1.38061691
 C           -2.70543604       -2.13441796        1.36211778
 C           -0.78429851       -3.15732634        0.21513743
 C           -3.23930313       -1.76776324        0.14309338
 C           -2.74032913        0.58362383        0.63985878
 C           -3.45041857       -0.35573552       -0.11224872
 C           -1.29504049        2.52425298        0.66021547
 C           -2.27313358        1.75039590        0.03003830
 C            0.84168244        3.63190227        0.19233316
 C           -0.57134637        3.46121364       -0.08187866
 C            2.23498464        1.92729194       -0.88225047
 C            1.52728731        3.12748838       -0.97924292
 C            2.23493230       -0.35051823       -1.66635063
 C            2.18060106        1.01845612       -1.93889804
 C            0.88483397       -2.32924537       -1.86504298
 C            1.52516607       -1.25223468       -2.46762171
 C           -1.32670209       -2.76919621       -1.01542894
 C           -2.64252800       -2.30836473       -1.06078908
 C           -0.47536743       -2.52284242       -2.09853818
 C           -3.55018403       -0.20742409       -1.55358809
 C           -3.06654411       -1.44630473       -2.15078101
 C           -2.65558253        2.04965191       -1.28022566
 C           -3.21887591        1.01070546       -2.12454530
 C           -0.71163602        3.50633922       -1.52765030
 C            0.62156476        3.33692163       -2.09417313
 C           -1.79520329        2.87163797       -2.11278790
 C            1.72383064        1.45749534       -3.18168320
 C            0.79189387        2.56969763       -3.23500147
 C            1.14018125       -0.89267015       -3.75120470
 C            1.29242598        0.48452582       -4.16650773
 C           -1.01104994       -2.07533083       -3.30604813
 C           -2.29800725       -1.40204874       -3.30368901
 C           -0.14620399       -1.36114914       -4.23307303
 C           -2.52646210        1.04660502       -3.40398279
 C           -1.63433018        2.19973878       -3.39363872
 C           -0.37333511        2.12428058       -3.97982788
 C            0.01678693        0.93076851       -4.70826626
 C           -2.13755847       -0.14334774       -4.01351812
 C           -0.87932321       -0.20991242       -4.73502874
