   70
C70 / DATE: 7/ 1/2024 / Origin: Program Fullerene / C70 from database
 C            1.58032630        0.04970775        4.49225113
 C            0.78063209       -1.15051895        4.33045516
 C            1.39352392       -1.96832865        3.29676241
 C            2.65392693       -0.00151938        3.51718823
 C            2.60560994       -1.29339305        2.86469874
 C            2.56663035        1.17969440        2.68080125
 C            0.73896839        1.18435531        4.15938320
 C            1.37883551        1.91234995        3.08482336
 C           -0.59847957       -0.74180257        4.15769224
 C           -0.60849249        0.69846989        3.94325880
 C           -1.41315947       -1.53111991        3.36339683
 C            0.57772707       -2.57137168        2.33583261
 C           -0.80434940       -2.55227290        2.51914468
 C            1.10098482       -2.82958084        1.06213799
 C            2.93389810       -1.35629497        1.52182074
 C            2.40080970       -2.39695695        0.77452528
 C            2.83286489        1.04032980        1.31832874
 C            3.31447302       -0.18625881        0.85929503
 C            2.21216209        1.91048507        0.41221602
 C            0.58830344        2.45305794        2.08584282
 C            1.19893440        2.75552476        0.87856418
 C           -1.34262414        1.21817744        2.87850691
 C           -0.79640077        2.25103770        2.10326331
 C           -2.45432430       -0.89210978        2.58036125
 C           -2.42177057        0.48441718        2.38497387
 C           -1.67929082       -2.75056801        1.37986500
 C           -2.74164613       -1.75639336        1.44937127
 C            0.24804786       -3.23596266        0.02372271
 C           -1.13318663       -3.06638890        0.14536392
 C            0.77627478       -3.53980050       -1.22950982
 C            2.97337652       -2.66101934       -0.46132496
 C            2.18532129       -3.31564050       -1.48152578
 C            3.71489749       -0.28253400       -0.46685165
 C            3.72095133       -1.59348268       -1.09829031
 C            2.35612116        1.69696542       -0.96614333
 C            3.16994754        0.66516446       -1.42201803
 C            1.41489396        2.23761870       -1.84369341
 C            0.49728313        3.55087198       -0.01375851
 C            0.72165990        3.36985723       -1.43122403
 C           -1.56613667        2.84049478        1.09574032
 C           -0.93505421        3.68634196        0.18317035
 C           -3.18733883        1.01605153        1.35752113
 C           -2.80459636        2.28753796        0.77373571
 C           -3.23109922       -1.19380103        0.27233558
 C           -3.62747090        0.14201062        0.27757304
 C           -1.90302783       -2.82967309       -0.99060722
 C           -2.94695624       -1.81721307       -0.93943547
 C            0.06174833       -3.10912165       -2.41777907
 C           -1.27020175       -2.75260958       -2.29625776
 C            2.29621654       -2.52894445       -2.70241332
 C            3.21201563       -1.44132591       -2.44995019
 C            2.72784078       -0.08352484       -2.58185817
 C            0.94981331       -2.21622441       -3.13628992
 C            0.94127436        1.45276072       -2.90801040
 C            1.44869977        0.16599992       -3.06924374
 C            0.55676123       -0.89059976       -3.32697421
 C           -0.26521432        1.75121997       -3.52967813
 C           -0.48434319        3.78633074       -2.11885231
 C           -1.53374355        3.92298407       -1.12025235
 C           -0.99040139        2.95815473       -3.18728313
 C           -3.27349960        2.28765445       -0.60514113
 C           -3.60402454        0.91285309       -0.95698099
 C           -2.65875556        3.10875247       -1.53844297
 C           -2.35193641        2.57260302       -2.85077263
 C           -2.86104045       -1.02964105       -2.16062831
 C           -1.73338494       -1.52914737       -2.93173919
 C           -0.81110844       -0.62168218       -3.45118592
 C           -1.23020408        0.68446734       -3.68106924
 C           -3.09581456        0.34016409       -2.12293799
 C           -2.47267849        1.14236037       -3.07580019
