   70
C70 / DATE: 7/ 1/2024 / Origin: Program Fullerene / C70 from database
 C            1.55307947        0.14344723        4.71650031
 C            0.76945761       -1.07287624        4.60196890
 C            1.39842897       -1.91917381        3.60231634
 C            2.66105215        0.04047025        3.78410548
 C            2.67719739       -1.31118527        3.26321771
 C            2.56324877        1.13726619        2.83623010
 C            0.71212968        1.24404359        4.28337882
 C            1.35157931        1.87544871        3.15086199
 C           -0.61283844       -0.68721143        4.40273007
 C           -0.63339762        0.73894818        4.10818372
 C           -1.41442293       -1.52092519        3.64019005
 C            0.60523525       -2.47840471        2.59506730
 C           -0.77982062       -2.49578719        2.75870770
 C            1.15487293       -2.70943280        1.32864591
 C            3.17659165       -1.50025599        1.98809286
 C            2.50866824       -2.44860906        1.12451907
 C            2.87377104        0.89282555        1.49512660
 C            3.45027262       -0.33082371        1.16266129
 C            2.22025389        1.63101087        0.50035776
 C            0.56591457        2.30060406        2.09507885
 C            1.18839330        2.49361135        0.87444975
 C           -1.38261957        1.18643808        3.02110133
 C           -0.82078542        2.10434700        2.12049490
 C           -2.50822471       -0.93094935        2.89391482
 C           -2.49167519        0.43821892        2.63064795
 C           -1.63376480       -2.65175034        1.59311920
 C           -2.82671485       -1.85635355        1.82117730
 C            0.31827398       -2.90442940        0.22053431
 C           -1.05333617       -2.67116137        0.33120155
 C            0.87628121       -3.06311129       -1.04611955
 C            2.98499431       -2.16698421       -0.21350060
 C            3.42387506       -0.78011300       -0.21652123
 C            2.24095508       -2.62069946       -1.28660317
 C            2.39669275        1.30413676       -0.85268467
 C            2.94408928        0.06608059       -1.20808258
 C            1.82195730        2.11111710       -1.84208167
 C            0.50140791        3.20620023       -0.08745340
 C            0.87461259        3.06687329       -1.47947747
 C           -1.58493440        2.57214616        1.04214774
 C           -0.94800545        3.24156614       -0.00485051
 C           -3.31975813        0.93325118        1.63256447
 C           -2.85165600        2.03677532        0.81364843
 C           -3.53932103       -1.38502640        0.73151798
 C           -4.00097012       -0.00929707        0.76122440
 C           -1.78528767       -2.23754979       -0.78212185
 C           -3.03560635       -1.64696887       -0.60683737
 C            0.08711825       -2.69658742       -2.20972517
 C           -1.14585539       -2.08557067       -2.01360753
 C            2.22394647       -1.82501716       -2.50004218
 C            2.63011420       -0.49084592       -2.44649213
 C            1.00218057       -2.16777161       -3.20657173
 C            1.89692248        1.71806813       -3.17746310
 C            2.27746339        0.35303278       -3.49024493
 C            0.82078318        2.09538875       -4.08049088
 C           -0.33860347        3.22086835       -2.26987283
 C           -1.46093872        3.09262038       -1.35692257
 C           -0.41001584        2.60467731       -3.50858720
 C           -3.28964159        1.79745320       -0.55649063
 C           -3.94973302        0.50959463       -0.59273812
 C           -3.38966532       -0.51667508       -1.44648112
 C           -2.43720440        2.13436458       -1.60098451
 C           -1.56662252       -1.07355363       -2.88309652
 C           -1.44237639        1.59998713       -3.72238767
 C           -2.49559014       -0.13481728       -2.43639922
 C           -2.25011048        1.22725283       -2.64976316
 C            0.52410125       -1.28441405       -4.16059917
 C            1.35653177       -0.14521013       -4.49827374
 C            0.48354248        0.94282821       -4.89412169
 C           -0.84069123       -0.79791622       -4.03808896
 C           -0.87580238        0.55649565       -4.55990614
