   70
C70 / DATE: 7/ 1/2024 / Origin: Program Fullerene / C70 from database
 C            1.21821699       -0.09762690        4.64258426
 C            2.46855365       -0.24780335        3.92487008
 C            2.41532669       -1.51904036        3.22482592
 C            0.36875070       -1.22895504        4.29254840
 C            1.04980667       -1.99636296        3.27539314
 C           -0.94787204       -0.71444170        3.99733957
 C            0.43530839        1.11090747        4.45724020
 C           -0.95201112        0.69974805        4.34143720
 C            0.91740628        2.13098253        3.64161514
 C            2.86302046        0.76672662        2.96206950
 C            2.13232425        1.94073427        2.85655200
 C            3.01056349       -1.32697601        1.92040006
 C            3.28860480        0.08535453        1.75175054
 C            2.46037258       -1.98700261        0.83489746
 C            0.40689161       -2.26295901        2.06988691
 C            1.18887383       -2.56200854        0.95638552
 C           -1.60794454       -1.13103991        2.84365426
 C           -0.92502060       -1.88155226        1.87273561
 C           -2.76625957       -0.44910184        2.48942216
 C           -1.86241171        1.53267766        3.70534986
 C           -2.94648432        0.91162298        2.96677041
 C           -0.01217333        2.90965480        2.83765124
 C           -1.37402893        2.65057067        2.90661273
 C            1.91349840        2.52262999        1.54456338
 C            0.60204138        3.14084630        1.54074890
 C            3.03939232        0.64615919        0.49800565
 C            2.33113218        1.85284040        0.39717426
 C            2.86679995       -1.56875658       -0.42425394
 C            3.09436975       -0.20034540       -0.61561190
 C            2.51972371       -2.38194948       -1.49347742
 C            0.56819816       -3.04542299       -0.19406015
 C            1.38101555       -3.25777710       -1.30904823
 C           -1.50399133       -2.09327565        0.61471144
 C           -0.80959547       -2.83285651       -0.35176024
 C           -3.23077085       -0.49145625        1.11991526
 C           -2.61374866       -1.34002748        0.21581810
 C           -3.23658292        1.74660716        1.81600675
 C           -2.16557976        2.71101977        1.68967178
 C           -3.49551132        0.86979850        0.69085138
 C           -0.15893931        3.05846053        0.37946879
 C           -1.53734447        2.82663697        0.45345193
 C            1.74973687        2.20544384       -0.82370787
 C            0.50050212        2.84055968       -0.83132762
 C            2.94511968        0.36172279       -1.87969422
 C            2.24975664        1.62845638       -1.98690513
 C            2.44256235       -1.83485371       -2.83477084
 C            2.54931533       -0.46547248       -3.00754774
 C            0.80076701       -3.50248844       -2.61100380
 C            1.39950327       -2.55566035       -3.54146290
 C           -1.41853195       -3.02490996       -1.59581147
 C           -0.63289797       -3.41890871       -2.74904599
 C           -2.79654808       -1.07858546       -1.13866400
 C           -2.39010655       -2.04683830       -2.04655168
 C           -3.04170511        1.24285906       -0.56932218
 C           -2.20619367        2.36265125       -0.68073770
 C           -2.97334079        0.24838031       -1.54646638
 C           -0.24339268        2.91462788       -2.00664054
 C           -1.67384332        2.68622347       -1.92341526
 C            1.44286835        1.59642652       -3.19389510
 C            1.51794910        0.24980125       -3.74651036
 C            0.24345422        2.28684502       -3.22341544
 C            0.32279057       -1.80737150       -4.16361313
 C           -0.91903812       -2.47814260       -3.81990095
 C           -2.05331546       -1.67098069       -3.41044258
 C            0.35804652       -0.41397295       -4.15971193
 C           -2.69374379        0.62030300       -2.85675567
 C           -2.06967664        1.90785789       -3.08166829
 C           -0.89042456        1.69350500       -3.90414068
 C           -2.06858668       -0.32953364       -3.75747769
 C           -0.84494819        0.28481505       -4.25356076
