   70
C70 / DATE: 7/ 1/2024 / Origin: Program Fullerene / C70 from database
 C            1.31795121       -0.02332627        5.15703379
 C            0.61060757       -1.11720739        4.51990142
 C            1.49339708       -1.72382094        3.54837990
 C            2.61045412        0.09742308        4.50719470
 C            2.63352460       -0.83589577        3.38983982
 C            2.81685837        1.50342105        4.24836834
 C            0.57758878        1.19626721        4.87614738
 C            1.52434618        2.16843040        4.38884270
 C           -0.64855457       -0.60498314        4.03107671
 C           -0.54972852        0.84303371        4.03385615
 C           -1.18309152       -1.19184924        2.89816109
 C            0.92058412       -2.24331597        2.39862929
 C           -0.47046406       -2.21208587        2.25959739
 C            1.68311912       -2.22466826        1.24353238
 C            2.97255914       -0.39718358        2.10279778
 C            2.48515901       -1.10830735        1.00096675
 C            3.36325248        1.88637764        2.96448022
 C            3.47909025        0.88699332        1.91122962
 C            1.24517080        2.83647799        3.13483796
 C            2.51122106        2.93797843        2.44625855
 C           -0.78699176        1.52407395        2.83340513
 C            0.11559911        2.49909132        2.38157174
 C           -2.01611491       -0.40940249        2.11870599
 C           -1.66212383        0.92792710        1.91323544
 C           -2.77815910       -1.06912926        1.17678143
 C           -1.03014491       -2.78311845        1.10878896
 C           -2.29616966       -2.35707638        0.70613803
 C            1.22924846       -2.97646898        0.17803586
 C           -0.17428569       -3.35467137        0.16673438
 C            1.57052647       -2.55537233       -1.16090386
 C            2.49389935       -0.52499816       -0.27857803
 C            1.97517106       -1.23993353       -1.36279910
 C            3.19244842        1.57300389        0.66550093
 C            2.49350463        2.79456737        1.01229917
 C            2.69905641        0.84779134       -0.41766357
 C            0.09667698        2.85327394        1.03098458
 C            1.30813563        3.02408808        0.34566568
 C           -1.85986483        1.51638487        0.65442755
 C           -1.05333989        2.59437270        0.28048935
 C           -3.26622992       -0.33943712        0.03152586
 C           -2.67384255        0.87491300       -0.29525362
 C           -2.71554380       -2.49648224       -0.68050317
 C           -3.51213963       -1.32040663       -1.00682514
 C           -0.57989709       -3.46432510       -1.22736767
 C            0.58654391       -3.14925159       -2.04346339
 C           -1.84094302       -3.02625456       -1.62805557
 C            0.39884304       -2.59339032       -3.29571311
 C            1.54439405       -0.55741872       -2.50793349
 C            0.94467355       -1.27024957       -3.55201866
 C            1.95533755        1.53553638       -1.38206445
 C            1.31257627        2.72186030       -1.00037188
 C            1.51377014        0.84076865       -2.51166401
 C           -1.06757491        3.03376741       -1.04176592
 C            0.21190001        3.15249209       -1.71170091
 C           -2.71198509        1.31616371       -1.62295468
 C           -1.99487971        2.44750453       -1.98745915
 C           -3.57894541       -0.89441744       -2.32047678
 C           -3.19385636        0.47220883       -2.63146948
 C           -2.06952720       -2.77306224       -2.97970089
 C           -0.93053027       -2.64342463       -3.87285870
 C           -3.03744058       -1.75640874       -3.35469091
 C            0.04262397       -0.59200864       -4.46992495
 C           -2.54395622        0.46401535       -3.93635823
 C           -1.11708017       -1.44476270       -4.67082070
 C           -2.43428330       -0.91450920       -4.37418106
 C            0.76064460        1.51675875       -3.47303628
 C            0.05763429        2.71421545       -3.07562737
 C           -1.35672161        2.48407313       -3.29346115
 C           -0.13527880        0.77777831       -4.34211950
 C           -1.47840286        1.32559088       -4.15563663
