   70
C70 / DATE: 7/ 1/2024 / Origin: Program Fullerene / C70 from database
 C            1.37600734       -0.12111695        4.09600343
 C            2.45714534       -0.35467094        3.15536664
 C            2.33296507       -1.71931480        2.66573237
 C            0.51426498       -1.29044010        4.08999176
 C            1.07521516       -2.25694453        3.16319646
 C           -0.84891777       -0.84172176        3.89070782
 C            0.54231371        1.05108201        3.92259966
 C           -0.82019622        0.59843363        3.69049276
 C            1.03177217        2.10311401        3.16617605
 C            2.82754316        0.65450891        2.27068137
 C            2.23947702        1.91584861        2.37104358
 C            3.49674515        0.30540459        1.10293401
 C            2.73626574       -2.02017959        1.36745445
 C            3.46894944       -1.07745771        0.65091395
 C            2.09480936       -3.05091922        0.68649821
 C            0.23455458       -2.93749044        2.28645754
 C            0.78813813       -3.50335320        1.14234598
 C           -1.69038323       -1.61041358        3.10612822
 C           -1.14540345       -2.72980738        2.34598945
 C           -2.66171523       -0.94513997        2.26084887
 C           -1.56797977        1.17668971        2.66222233
 C           -2.52248656        0.41229969        1.97674410
 C            0.10399904        2.88712864        2.37293853
 C           -1.19826042        2.43591023        2.17932115
 C            2.12473463        2.75701477        1.18761609
 C            0.83466552        3.42888595        1.24004433
 C            3.40900886        1.16401385       -0.06869811
 C            2.61608990        2.30566153       -0.03212953
 C            3.42532930       -1.07171297       -0.80351947
 C            3.39748303        0.31363936       -1.24963253
 C            2.09098488       -3.07161536       -0.76881882
 C            2.67019909       -2.02157404       -1.48074771
 C           -0.04316131       -3.71295246       -0.03215824
 C            0.81681877       -3.63452001       -1.19733054
 C           -1.94913871       -2.87047306        1.13876078
 C           -2.99468520       -1.86375014        1.18878615
 C           -1.32287697       -3.16680690       -0.06938883
 C           -3.49102415       -1.34955784        0.00563336
 C           -3.18021255        0.94254908        0.86458978
 C           -3.70050790        0.08445971       -0.10630865
 C           -1.94622776        3.03129107        1.17167186
 C           -3.03253247        2.29051492        0.56324517
 C            0.14253547        3.69355321        0.06224924
 C           -1.24931376        3.74833660        0.11298702
 C            2.04686020        2.77653181       -1.20975667
 C            0.78622119        3.50434054       -1.16176431
 C            2.62197338        0.66737147       -2.35146057
 C            2.03193722        1.92903877       -2.39300546
 C            2.22228873       -1.72634630       -2.76471660
 C            2.12318562       -0.33594352       -3.18128117
 C            0.27306898       -3.24823587       -2.40969849
 C            1.07204725       -2.43096221       -3.30161632
 C           -1.84630701       -2.67730709       -1.27354707
 C           -2.94054999       -1.81300722       -1.25645273
 C           -1.08912850       -2.74358041       -2.44404068
 C           -3.58394863        0.43187642       -1.51482168
 C           -2.96453526       -0.69453631       -2.18678896
 C           -3.14247150        2.72308345       -0.82039636
 C           -2.02110400        3.59967694       -1.10710551
 C           -3.20297725        1.71656319       -1.86349353
 C            0.02347953        3.14955346       -2.35307890
 C            0.73438565        2.08279166       -3.03062638
 C           -1.35918536        3.10643894       -2.29761804
 C           -2.04483119        1.89657171       -2.72519376
 C            0.82310025       -0.15502555       -3.81120702
 C            0.19587423       -1.45140394       -3.92245554
 C           -1.12710737       -1.61935708       -3.36865750
 C           -1.86830404       -0.49605399       -3.02023559
 C            0.05486232        0.94517928       -3.45234244
 C           -1.30182589        0.78433472       -3.12827870
