   70
C70 / DATE: 7/ 1/2024 / Origin: Program Fullerene / C70 from database
 C            1.24673442        0.04793909        4.33791810
 C            2.52847913       -0.19633113        3.71579567
 C            2.57331681       -1.59698429        3.34187342
 C            0.42803143       -1.14190570        4.16754720
 C            1.23669022       -2.14646438        3.50390901
 C           -0.82055982       -0.73893996        3.54629939
 C            0.47280525        1.17523955        3.87018686
 C           -0.86332708        0.70827541        3.54318845
 C            1.05449391        2.09850840        3.01197465
 C            2.88852543        0.58647951        2.54639414
 C            2.11073178        1.68193640        2.18342011
 C            3.20196198       -1.68840658        2.03639644
 C            3.31543437       -0.33636055        1.50742735
 C            2.78361769       -2.69971474        1.18596614
 C            0.68567907       -2.86395520        2.44655966
 C            1.55554088       -3.40953852        1.50522500
 C           -1.25045914       -1.42036917        2.42089303
 C           -0.64435103       -2.63051150        2.08300134
 C           -2.04968332       -0.76238903        1.48588239
 C           -1.55071575        1.37668765        2.53144328
 C           -2.12738864        0.64067470        1.48717377
 C            0.19998543        3.08402172        2.53977506
 C           -1.18471965        2.70038646        2.29723834
 C            0.63142680        3.89979839        1.42694369
 C            2.14413954        2.09564557        0.84955930
 C            1.60109176        3.32978326        0.51948464
 C            2.95376794       -0.08557582        0.18287892
 C            2.40048494        1.15748914       -0.15566587
 C            2.76513525       -2.45134707       -0.24251160
 C            2.88830680       -1.15101527       -0.72006977
 C            1.02252131       -3.94325983        0.26504267
 C            1.76093382       -3.32577081       -0.83056145
 C           -1.21504948       -3.40003857        1.07678806
 C           -0.34723158       -4.11076351        0.14935935
 C           -2.66915692       -1.50852620        0.47994226
 C           -2.32303049       -2.84901800        0.31588971
 C           -3.31832132       -0.85574584       -0.56346718
 C           -2.66449006        1.31250481        0.38093223
 C           -3.35247806        0.59425655       -0.58992118
 C           -1.62369288        3.36455119        1.08679777
 C           -0.54801100        4.23993810        0.65662914
 C           -2.31461275        2.64127155        0.12278188
 C            1.12567267        3.56330992       -0.83106753
 C           -0.17469499        4.22217343       -0.74186228
 C            2.05515901        1.43490993       -1.48509688
 C            1.33494327        2.59044342       -1.80470436
 C            2.52329250       -0.90930651       -2.03560327
 C            2.19572077        0.44038252       -2.44769153
 C            1.09286547       -2.91160602       -1.98488838
 C            1.58601445       -1.81498986       -2.68740546
 C           -0.94172100       -4.02621736       -1.16848891
 C           -2.23948231       -3.39253375       -1.02778369
 C           -0.21848616       -3.32839880       -2.21597609
 C           -3.11913119       -1.31708809       -1.93270702
 C           -2.41812811       -2.49059929       -2.14815372
 C           -1.15604793       -2.42449196       -2.86978015
 C           -3.25502972        1.00234397       -1.98129874
 C           -2.78729678       -0.15339425       -2.72777085
 C           -2.29957530        3.11154113       -1.19343494
 C           -1.15327915        3.88024095       -1.66227102
 C           -2.73235660        2.24945958       -2.28050586
 C            0.55009538        2.61689573       -2.95895633
 C           -0.72909922        3.29866173       -2.91869801
 C           -1.74676900        2.35141062       -3.34206713
 C            1.21838424        0.34010936       -3.51698546
 C            0.67546718       -1.00598217       -3.47993662
 C           -0.69836509       -1.19900805       -3.35148246
 C           -1.56053338       -0.09711540       -3.39082455
 C            0.35960974        1.40158731       -3.73021737
 C           -1.06978573        1.14480620       -3.79066272
