   70
C70 / DATE: 7/ 1/2024 / Origin: Program Fullerene / C70 from database
 C            1.28404324       -0.00290732        4.74383963
 C            2.50401278       -0.08437963        3.97107715
 C            2.49580219       -1.36256726        3.28357135
 C            0.44063601       -1.12749607        4.35890055
 C            1.15321218       -1.89828537        3.35934462
 C           -0.86762502       -0.60541727        4.02393666
 C            0.48611833        1.19990853        4.64465467
 C           -0.88634276        0.79227526        4.39956536
 C            0.82633408        2.20045859        3.64539735
 C            2.78917190        0.93961200        2.97767919
 C            1.93447025        2.03082576        2.81349416
 C            3.06301247       -1.15389903        1.96920068
 C            3.31520269        0.26498353        1.79910372
 C            2.51867086       -1.83046142        0.89483275
 C            0.51131551       -2.22835510        2.16846161
 C            1.28348183       -2.47279908        1.03486254
 C           -1.44514029       -0.95844590        2.81138140
 C           -0.84122720       -1.93081299        2.00434780
 C           -2.40846251       -0.11492530        2.25899560
 C           -1.46613658        1.73674093        3.46382484
 C           -0.42416367        2.67775596        3.07583777
 C           -2.32455820        1.26548469        2.47721639
 C           -0.43546757        3.19655723        1.78165623
 C            1.97807442        2.73072818        1.61346163
 C            0.77494026        3.38551865        1.11960014
 C            3.11537254        0.83352882        0.53838028
 C            2.67073557        2.14923133        0.47252277
 C            2.87595968       -1.38822519       -0.36417760
 C            2.95032587       -0.00500943       -0.57489424
 C            2.58907351       -2.23644374       -1.41753162
 C            0.65945721       -2.96712031       -0.11286075
 C            1.43241581       -3.09894972       -1.26919295
 C           -1.47982449       -2.32333717        0.82607287
 C           -0.73473048       -2.89526155       -0.21306648
 C           -3.17801992       -0.60117316        1.21079274
 C           -2.75777601       -1.83164133        0.56613144
 C           -3.62941072        0.30694751        0.16824943
 C           -2.61753230        2.13534315        1.43363719
 C           -1.61309114        3.11013724        1.04154152
 C           -3.26255281        1.63851824        0.23205989
 C           -1.56975886        3.14131202       -0.41272016
 C           -2.60850811        2.24935208       -0.91168966
 C            0.82414084        3.36084663       -0.33457488
 C            2.01702967        2.62514708       -0.72991934
 C           -0.34634609        3.20693856       -1.07376778
 C            2.54381753        0.53908682       -1.80453914
 C            1.96013142        1.80771516       -1.84916301
 C            2.59553142       -1.71135671       -2.76179755
 C            2.46961384       -0.28035453       -2.93081523
 C            0.79956457       -3.21998571       -2.57013158
 C            1.51887459       -2.35513666       -3.49476947
 C           -1.36336452       -3.20256763       -1.42285647
 C           -0.58210833       -3.29148235       -2.64581695
 C           -3.25109119       -1.78927987       -0.79658360
 C           -3.52944506       -0.39346812       -1.09870493
 C           -2.62872304       -2.56785754       -1.75652293
 C           -2.36843382        1.50203456       -2.06223319
 C           -2.90077250        0.21228504       -2.18802221
 C           -0.25548166        2.71173071       -2.37230220
 C            0.98275064        2.08347288       -2.80083650
 C           -1.35047771        1.92274788       -2.91349806
 C            1.42772885       -0.04738285       -3.91811184
 C            0.79416948       -1.32361842       -4.21729184
 C            0.65561665        1.10011472       -3.81860752
 C           -0.79515702        1.01067045       -3.89810634
 C           -1.27224785       -2.52590387       -3.67176077
 C           -2.50988323       -2.02936602       -3.09893717
 C           -2.54114432       -0.58668322       -3.27306040
 C           -0.59113193       -1.40756195       -4.30482192
 C           -1.40467178       -0.21809140       -4.09994562
