   70
C70 / DATE: 7/ 1/2024 / Origin: Program Fullerene / C70 from database
 C            1.76803195       -0.32743775        4.83234151
 C            0.91346763       -1.50037562        4.87690704
 C            1.28497787       -2.36106965        3.76961169
 C            2.64989887       -0.46233172        3.68686734
 C            2.36089071       -1.72434994        3.03495988
 C            2.53973855        0.74767943        2.89556821
 C            0.92393287        0.82866642        4.59190863
 C            1.47253811        1.55621768        3.46013568
 C           -0.45333275       -1.06681159        4.64536980
 C           -0.45184612        0.37664723        4.50319558
 C            0.07587187       -2.69119960        3.04076402
 C           -0.99813871       -1.85781138        3.55411236
 C            0.16209291       -2.84621394        1.66682869
 C            2.29501290       -1.74226802        1.64635257
 C            1.38190934       -2.59584415        1.03149949
 C            2.60539581        0.63896317        1.51337710
 C            2.72701565       -0.62508980        0.93309680
 C            2.06207639        1.66316624        0.74750683
 C            0.58411594        2.17219574        2.58252107
 C            0.99772886        2.41086974        1.26968468
 C           -1.24742641        0.92939982        3.50979085
 C           -0.78171547        2.06198988        2.84153842
 C           -1.84324333       -1.22859109        2.63922248
 C           -2.17190916        0.10876173        2.86124830
 C           -1.00333119       -2.69929811        0.92746447
 C           -1.93694881       -1.74335939        1.33884679
 C           -0.96714309       -3.10698422       -0.39557592
 C            1.44341464       -2.72651155       -0.35461960
 C            0.33602164       -3.25600258       -1.01331913
 C            2.75122984       -0.71096167       -0.45719407
 C            2.31123505       -1.89293015       -1.06075514
 C            2.29530774        1.64515195       -0.62313505
 C            2.77789077        0.47110096       -1.20186961
 C            1.68841991        2.60575250       -1.42021194
 C            0.15019606        3.11883391        0.41084946
 C            0.49482968        3.26060807       -0.92874716
 C           -1.66973181        2.74229791        2.02068328
 C           -1.18437007        3.29439473        0.76686294
 C           -3.10480789        0.71009970        2.02940221
 C           -2.96020727        2.12989617        1.76358338
 C           -2.72456273       -1.07631171        0.38986016
 C           -3.43472647        0.06101732        0.77321961
 C           -1.84010845       -2.47395924       -1.36233141
 C           -2.61935238       -1.39629267       -0.96816531
 C            0.17530760       -3.03658630       -2.43892715
 C           -1.13402225       -2.42435616       -2.63770422
 C            2.39440555       -2.02099554       -2.44502319
 C            1.25937072       -2.57525306       -3.16838571
 C            2.94577610        0.40143824       -2.58238252
 C            2.90716636       -0.90318365       -3.21497340
 C            1.49234195        2.34613840       -2.83490266
 C            2.21798796        1.32985708       -3.43432329
 C           -0.53908429        3.10373249       -1.94246264
 C            0.06115645        2.44731214       -3.09506970
 C           -2.21505925        3.09752991       -0.24256990
 C           -3.30628356        2.36672367        0.37489622
 C           -3.70900201        1.10255778       -0.20498207
 C           -1.83012304        2.77667653       -1.54184810
 C           -3.00616240       -0.47078086       -1.93256203
 C           -3.40129157        0.86598141       -1.53328349
 C           -2.53957541        1.80239872       -2.24556705
 C           -1.27219131       -1.30670016       -3.46635477
 C           -0.61044108        1.40341731       -3.73474608
 C           -2.22831394       -0.34499514       -3.15410749
 C           -1.89290465        1.06176214       -3.31892971
 C            1.00025007       -1.71627285       -4.30457887
 C            2.11258718       -0.79171373       -4.42529650
 C            1.56907094        0.55330922       -4.47007742
 C           -0.23186674       -0.94862731       -4.32261529
 C            0.12056120        0.45892496       -4.45247995
