   70
C70 / DATE: 7/ 1/2024 / Origin: Program Fullerene / C70 from database
 C            1.49331124        0.07353516        4.86697681
 C            0.69728733       -1.13896691        4.91824789
 C            1.42428142       -2.18193496        4.21336255
 C            2.61333025       -0.16788549        3.97420628
 C            2.61878226       -1.57751706        3.63501607
 C            2.55325311        0.80799144        2.89606277
 C            0.67481504        1.11136417        4.26996103
 C            1.39636637        1.65150996        3.13421128
 C           -0.65375544       -0.80915640        4.49111881
 C           -0.65071509        0.57105005        4.03239632
 C           -1.37943745       -1.75422256        3.78016492
 C            0.70314952       -3.12722275        3.48956733
 C           -0.74602361       -3.01662262        3.43097156
 C            1.16632896       -3.54324987        2.17487652
 C            3.02298717       -1.93821036        2.35815787
 C            2.34887932       -3.02458263        1.66529994
 C            2.82581299        0.39807606        1.58828009
 C            3.29623085       -0.89361707        1.37768220
 C            2.24823707        1.09681989        0.51902514
 C            0.66445732        2.05956567        2.03313561
 C            1.29703282        2.07964762        0.79810462
 C           -1.28099479        0.90377051        2.83565770
 C           -0.72136972        1.91468352        2.05018622
 C           -2.17295767       -1.32965370        2.63929392
 C           -2.15687795        0.00055191        2.23041255
 C           -1.17117371       -3.37554930        2.08787461
 C            0.00849322       -3.65222224        1.29791018
 C           -2.08185040       -2.35518786        1.61741308
 C            0.08567612       -3.14243955        0.00376413
 C            2.43844147       -2.74911028        0.24384879
 C            3.14809473       -1.49135462        0.07050751
 C            1.34610443       -3.00066218       -0.58010951
 C            2.38313984        0.62043027       -0.79593953
 C            2.79776930       -0.70061122       -1.01511845
 C            1.80742377        1.35081135       -1.85122562
 C            0.62682714        2.69587933       -0.24725481
 C            1.08968726        2.51307573       -1.54557193
 C           -1.42176443        2.35476364        0.93109684
 C           -0.70465702        3.05496969       -0.03695711
 C           -2.59841434        0.29313409        0.94272041
 C           -2.52990667        1.61417216        0.52381130
 C           -2.00432476       -1.94038731        0.29459511
 C           -1.01754486       -2.46288852       -0.54404964
 C           -2.56069023       -0.71107317       -0.03076595
 C           -0.95829815       -2.01044404       -1.86625127
 C            1.42487437       -2.51772363       -1.87589167
 C            2.29658952       -1.37876307       -2.11544840
 C            0.19971095       -2.25364678       -2.59589662
 C            1.66851303        0.75397007       -3.11640733
 C            1.73590697       -0.62850511       -3.21099743
 C            0.56200467       -1.35445761       -3.67211603
 C            0.96884030        1.41153891       -4.12490390
 C            0.53667999        3.28759087       -2.56061286
 C            0.50123213        2.76195607       -3.90621304
 C           -1.41249522        3.67402085       -1.05792654
 C           -0.73879965        3.93575387       -2.31645699
 C           -3.13636956        1.93404353       -0.68437221
 C           -2.72869961        3.15159483       -1.36072030
 C           -2.65713757       -0.35591870       -1.37421326
 C           -1.84203661       -1.01220090       -2.30390013
 C           -3.21845670        0.88314675       -1.68213243
 C           -0.44005997       -0.63306478       -4.29382656
 C           -0.09382196        0.68272899       -4.79948372
 C           -1.71479577       -0.50798626       -3.60328162
 C           -0.87321193        2.84103393       -4.38347623
 C           -1.64445400        3.56175271       -3.39177920
 C           -2.79599870        2.91249726       -2.79051247
 C           -3.00625830        1.48438138       -2.98734451
 C           -1.28874812        1.50045224       -4.75511273
 C           -2.26845230        0.79477503       -3.93964795
