   70
C70 / DATE: 7/ 1/2024 / Origin: Program Fullerene / C70 from database
 C            1.55427328       -0.03365514        5.06776698
 C            0.74514840       -1.23326656        4.95503523
 C            1.62453017       -2.27325570        4.47796584
 C            2.71117686       -0.21042924        4.20618595
 C            2.81145867       -1.62082962        3.92741602
 C            2.57906315        0.71341272        3.09109494
 C            0.77904184        1.05558230        4.51895106
 C            1.56141072        1.67450465        3.46231952
 C           -0.44029741       -0.90007983        4.17318610
 C           -0.53157118        0.54374063        4.15245581
 C           -0.73779376       -1.61294434        3.00820247
 C            1.11886724       -3.17174053        3.46445349
 C           -0.12644098       -2.84370316        2.78356332
 C            2.92937428       -2.04272773        2.54936382
 C            2.13839867       -3.24487550        2.43901035
 C            2.59803492        0.24379897        1.77516551
 C            2.84793136       -1.11132201        1.50809317
 C            2.05705190        1.05991054        0.76730632
 C            0.83934375        2.27689454        2.44666494
 C            1.30851126        2.18621698        1.13369565
 C           -1.13616212        1.15236422        3.06753003
 C           -0.53632246        2.31717597        2.61976248
 C           -1.39795798       -0.96555334        1.95259381
 C           -1.78889908        0.36836090        2.11104043
 C           -1.46018831       -1.56334460        0.68445698
 C            0.03156300       -3.30617299        1.42238176
 C            1.45440288       -3.45731468        1.19226954
 C           -0.69672064       -2.70236372        0.40306456
 C            2.59484819       -1.59160374        0.22334446
 C            1.94448912       -2.82503204        0.06970430
 C            2.03543761        0.60534319       -0.55694856
 C            2.52153034       -0.67655705       -0.83065784
 C            1.27432364        1.29288777       -1.51683722
 C            0.59555121        2.89715944        0.16328623
 C            0.66927749        2.50584339       -1.17966553
 C           -1.25166693        3.07223117        1.72636075
 C           -0.51788597        3.61509242        0.61012531
 C           -2.41358141        1.04707996        1.05711121
 C           -2.40793157        2.44097764        1.13205667
 C           -2.02996125       -0.86532708       -0.38641637
 C           -2.53842980        0.42933828       -0.19768623
 C           -1.94191760       -1.40420620       -1.67594545
 C           -0.20891526       -2.85887266       -0.89593801
 C            1.17848617       -2.97438006       -1.06473113
 C           -0.98320722       -2.38711154       -1.95168051
 C            2.38767468       -1.19688444       -2.11534674
 C            1.74613418       -2.49147039       -2.22449572
 C            1.15915468        0.79462096       -2.82526094
 C            1.83956643       -0.36830039       -3.16943534
 C            0.19338866        1.31395285       -3.70242482
 C           -0.09010499        3.17740102       -2.14036861
 C           -0.46952486        2.48495747       -3.35599651
 C           -1.53462432        4.04256137       -0.32211143
 C           -2.71551668        3.23047976       -0.03672383
 C           -1.25759032        3.93085862       -1.73031426
 C           -3.04928578        1.15456589       -1.29405349
 C           -1.92969544        2.50886693       -3.44216290
 C           -3.06734779        2.54884212       -1.25378772
 C           -2.40771228        3.27594919       -2.32003321
 C           -2.66013413       -0.81295848       -2.70899155
 C           -3.09175703        0.56049844       -2.55578322
 C           -2.57640452        1.31242322       -3.70033383
 C           -0.44652761        0.46755103       -4.61234709
 C           -2.20236636       -0.95634881       -4.07827577
 C           -1.89066982        0.37524127       -4.55684448
 C           -0.48419475       -2.54237508       -3.24694073
 C            0.94809947       -2.50162575       -3.42171627
 C            1.24898258       -1.27787393       -4.13600738
 C           -1.03541470       -1.76920191       -4.33573394
 C            0.02819557       -0.88297754       -4.80098839
