   70
C70 / DATE: 7/ 1/2024 / Origin: Program Fullerene / C70 from database
 C            1.16139591       -0.04099234        4.27079628
 C            2.45456101       -0.35465308        3.71079752
 C            2.46206231       -1.77189966        3.39509712
 C            0.34128936       -1.24252984        4.19864278
 C            1.09179150       -2.24632364        3.48343469
 C           -0.94950967       -0.85588316        3.68455936
 C            0.39414831        1.03894498        3.68333841
 C           -0.98104957        0.59670826        3.62624744
 C            0.89450910        1.75294347        2.60060068
 C            2.88599038        0.35629004        2.52562167
 C            2.12354660        1.40398200        2.01464375
 C            3.16742255       -1.94411983        2.13718390
 C            3.41654196       -0.61745325        1.59113042
 C            2.72984441       -2.94264499        1.28285831
 C            0.53497679       -2.86614808        2.36688815
 C            1.42123334       -3.53024198        1.52410748
 C           -1.51639051       -1.57084137        2.63546969
 C           -0.71733377       -2.44289168        1.87385695
 C           -2.66244559       -1.02171230        2.07267438
 C           -1.83374482        1.19290051        2.70549248
 C           -2.86970107        0.41244996        2.19949376
 C            0.00155865        2.54794254        1.88168312
 C           -1.37395288        2.27961237        1.95244225
 C            0.50700569        3.35641974        0.86868806
 C            2.39898596        1.83082513        0.71537296
 C            1.75880167        2.97279669        0.24733079
 C            3.23743755       -0.37644845        0.23081294
 C            2.99159390        0.93387124       -0.18262322
 C            2.82675582       -2.72792083       -0.14644902
 C            2.92552335       -1.43063318       -0.63574303
 C            0.95227380       -4.06586974        0.26977338
 C            1.87995243       -3.63135328       -0.76666819
 C           -1.16269861       -2.86885925        0.60618143
 C           -0.37833310       -3.72131202       -0.16920223
 C           -3.07157841       -1.40786614        0.74022709
 C           -2.26487805       -2.25719627        0.00311578
 C           -3.61193793        0.86447028        1.03797369
 C           -3.66339202       -0.24360363        0.09258196
 C           -2.25312478        2.89593669        1.06051761
 C           -3.40418886        2.15260841        0.57136618
 C           -0.37101730        3.86415501       -0.16956114
 C           -1.73865669        3.69499292       -0.03977695
 C            1.64452014        3.21441799       -1.17990109
 C            0.26976482        3.61280769       -1.45452124
 C            2.98644459        1.20062390       -1.54857808
 C            2.30677731        2.37788589       -2.06223645
 C            2.43377525       -1.14376837       -1.91073954
 C            2.72899873        0.09927719       -2.45770440
 C            1.08932641       -3.14814034       -1.88321106
 C           -0.29257255       -3.49021461       -1.59894098
 C            1.37276925       -1.89934170       -2.43321175
 C           -2.37247711       -2.23317567       -1.38521065
 C           -1.29235155       -2.75137456       -2.20533894
 C           -3.43974557       -0.02220964       -1.26848533
 C           -2.88760519       -1.04014662       -2.03836516
 C           -3.52226950        2.39981827       -0.85087979
 C           -2.51537973        3.37885578       -1.22180349
 C           -3.41750200        1.27782030       -1.76678624
 C           -0.44603325        3.01530021       -2.49800744
 C           -1.82764454        2.88829070       -2.40225564
 C           -2.44765445        1.63087920       -2.79318640
 C            1.64895151        2.00659606       -3.29864911
 C            1.91853432        0.60030825       -3.54684325
 C            0.21839520        2.21730196       -3.42349580
 C            0.40057893       -1.28779015       -3.23401233
 C           -0.92392239       -1.70317809       -3.14225420
 C           -1.97949703       -0.70239439       -3.12551156
 C           -1.66322225        0.63311836       -3.36981232
 C            0.65949131       -0.05707961       -3.82237721
 C           -0.38571936        0.95705978       -3.82865922
