   70
C70 / DATE: 7/ 1/2024 / Origin: Program Fullerene / C70 from database
 C            1.31348889       -0.13989160        4.26033122
 C            2.53223812       -0.58406046        3.62820665
 C            2.39310941       -2.00271076        3.32759042
 C            0.48468444       -1.30954585        4.49688362
 C            1.10877152       -2.44405395        3.83118370
 C           -0.88606321       -0.95530124        4.16382005
 C            0.50130670        0.84686846        3.57634948
 C           -0.87845430        0.39718707        3.62540017
 C            0.96280778        1.44772601        2.40656257
 C            2.95551896        0.07341132        2.40857142
 C            2.23828280        1.15786844        1.90123460
 C            2.69395388       -2.17977184        1.91749912
 C            3.35115407       -0.96466324        1.48084325
 C            1.75003172       -2.76715070        1.07731450
 C            0.32765906       -3.27302506        3.03640357
 C            0.67486735       -3.45966848        1.63045750
 C           -1.70335479       -1.90952835        3.57561017
 C           -1.11685362       -3.16042071        3.12030629
 C           -2.66870408       -1.48986405        2.57747605
 C           -1.72193681        0.72434872        2.56651419
 C           -2.75449243       -0.14899921        2.20833529
 C            0.03353007        2.06398961        1.57439304
 C           -1.32067574        1.72089766        1.67112410
 C            0.48865662        2.80367406        0.48838789
 C            2.55019889        1.56955394        0.60098479
 C            1.77086673        2.55952596       -0.00394307
 C            3.31999237       -0.64636681        0.13666201
 C            3.30560238        0.70120074       -0.19715627
 C            1.70079313       -2.36487526       -0.26144601
 C            2.71765344       -1.54120887       -0.74341213
 C            0.50314419       -2.47271983       -0.98251312
 C           -0.55998072       -3.56117536        0.87482677
 C           -1.66098988       -3.46107410        1.80784219
 C           -2.70005620       -2.49513971        1.52565606
 C           -0.66123730       -2.88952002       -0.33539625
 C           -2.87030763       -2.05425274        0.21859185
 C           -1.89856666       -2.37717841       -0.73805792
 C           -3.50692220        0.13770851        1.07450875
 C           -3.61433172       -0.89099161        0.05273091
 C           -2.22821960        2.19607930        0.72482990
 C           -3.32311700        1.40481114        0.39490393
 C           -0.42796029        3.53024032       -0.26620506
 C           -1.83752871        3.20182288       -0.15455101
 C           -0.14508986        3.82802300       -1.66220551
 C            2.12647006        3.03363909       -1.26488540
 C            1.08938242        3.47396836       -2.17777288
 C            3.58223321        1.03110961       -1.51628857
 C            3.07776969        2.27611410       -2.05460546
 C            2.75690168       -1.24621058       -2.10045613
 C            3.38238869        0.00062006       -2.51851957
 C            0.42350320       -1.98363562       -2.29090604
 C            1.54755345       -1.41556011       -2.88393897
 C           -2.02106842       -1.87552783       -2.02945698
 C           -0.82414574       -1.67430993       -2.82696467
 C           -3.66345642       -0.23734123       -1.24226482
 C           -3.66291396        1.19698798       -1.00536501
 C           -2.92197419       -0.76356043       -2.28940647
 C           -2.40281299        3.22070513       -1.49373610
 C           -1.32538810        3.47675434       -2.42997899
 C           -3.12811248        2.05323740       -1.95771101
 C           -0.98304181       -0.43477267       -3.57380661
 C           -2.27678898        0.12985843       -3.23911712
 C           -1.24589289        2.34806088       -3.34276225
 C           -2.40089751        1.50303370       -3.09484266
 C            1.12813628        2.56450894       -3.31149713
 C            2.45465634        1.98587556       -3.33915638
 C            2.58343976        0.57005278       -3.58922481
 C            1.37893604       -0.22458969       -3.70497390
 C            0.00477763        1.78088526       -3.59011052
 C            0.12687528        0.38831754       -3.74970122
