   70
C70 / DATE: 7/ 1/2024 / Origin: Program Fullerene / C70 from database
 C            1.22679729       -0.02163828        4.22669015
 C            2.50401775       -0.35535089        3.64040682
 C            2.47594341       -1.76717742        3.29934952
 C            0.40346953       -1.22162549        4.21103467
 C            1.10411970       -2.22464612        3.44345651
 C           -0.92198294       -0.83472324        3.78478717
 C            0.44623219        1.04444451        3.63125886
 C           -0.93438270        0.61163252        3.62599316
 C            0.92148694        1.72837299        2.51914048
 C            2.93478853        0.36581340        2.46081178
 C            2.16612857        1.40852994        1.95191212
 C            3.12991085       -1.92484721        2.01222614
 C            3.48283800       -0.59874944        1.52692173
 C            2.60540757       -2.84247180        1.11711469
 C            0.47223215       -2.80770171        2.34802304
 C            1.26777829       -3.36870057        1.34826376
 C           -1.59428889       -1.60559361        2.84333377
 C           -0.88944716       -2.56988241        2.10371551
 C           -2.76684062       -1.06088365        2.32631776
 C           -1.80770191        1.16220387        2.69250031
 C           -2.89731539        0.38668249        2.29873577
 C            0.01236180        2.48667984        1.78310152
 C           -1.35561517        2.18452926        1.84901814
 C            0.50318662        3.30919714        0.77400784
 C            2.45753889        1.85829235        0.66543515
 C            1.78882320        2.98203958        0.19078369
 C            3.39441898       -0.31710802        0.16506593
 C            3.10388566        0.99552821       -0.22746143
 C            2.73235798       -2.58521709       -0.30451331
 C            3.23569900       -1.36767875       -0.74947227
 C            0.69347598       -3.69514174        0.05476809
 C            1.55897248       -3.12998108       -0.96744918
 C           -1.49618761       -3.17824699        1.00288652
 C           -0.67712411       -3.62740018       -0.10959475
 C           -3.35285516       -1.58711050        1.10737257
 C           -2.71345968       -2.61953591        0.44029100
 C           -3.66302330        0.74731101        1.11820389
 C           -3.90859471       -0.46964494        0.35840590
 C           -2.23442566        2.72149992        0.90812894
 C           -3.36642789        1.93062364        0.45721255
 C           -0.37195315        3.76315966       -0.29202959
 C           -1.72112395        3.44893647       -0.23933773
 C            1.71672338        3.24285304       -1.23690393
 C            0.35427600        3.64815847       -1.54747141
 C            3.22737805        1.34672825       -1.56842203
 C            2.41298827        2.42060700       -2.11111669
 C            3.05271200       -1.07065933       -2.09567700
 C            3.26209656        0.28748666       -2.55225950
 C            1.01501751       -2.42736681       -2.04273107
 C            1.86370258       -1.58913029       -2.75883597
 C           -1.20593960       -3.01492194       -1.31388467
 C           -2.54911416       -2.55952442       -1.00550651
 C           -0.36895157       -2.23215682       -2.11046649
 C           -3.81848255       -0.45193944       -1.02885436
 C           -3.07809429       -1.49637420       -1.72036483
 C           -3.38980123        1.97450643       -0.99661301
 C           -2.39793998        2.94767152       -1.42640617
 C           -3.57179449        0.80234906       -1.72372582
 C           -0.28165051        3.13575471       -2.67295754
 C           -1.67793801        2.73216802       -2.59643288
 C            1.76015174        1.92257039       -3.31424624
 C            2.25273557        0.57849871       -3.55523384
 C            1.30370893       -0.52261204       -3.56325053
 C            0.40979045        2.17582778       -3.51797730
 C           -0.89950506       -1.14412674       -2.81833465
 C           -2.26282741       -0.86001945       -2.73878343
 C           -2.71384430        0.51460792       -2.86287927
 C           -1.81865376        1.47325198       -3.31407203
 C           -0.05348634       -0.24362022       -3.47009351
 C           -0.49237914        1.05499198       -3.73331654
