   70
C70 / DATE: 7/ 1/2024 / Origin: Program Fullerene / C70 from database
 C            1.59084670       -0.03337022        4.45709985
 C            0.77447575       -1.19969055        4.18990581
 C            1.44148710       -1.99510607        3.17713633
 C            2.68383448       -0.03675544        3.50084909
 C            2.54040006       -1.20167122        2.65387761
 C            2.70969583        1.26063070        2.86440080
 C            0.77744853        1.13970523        4.19006622
 C            1.52401320        1.99234033        3.29307707
 C           -0.57504356       -0.75067843        3.90620601
 C           -0.53256180        0.69470997        3.76485413
 C           -1.30662429       -1.47617125        2.97818782
 C            0.64155769       -2.67837122        2.27380358
 C           -0.73986873       -2.64243972        2.46398627
 C            1.12616664       -2.88459547        0.98506219
 C            2.65095438       -1.03763665        1.27575487
 C            1.99706494       -1.94225301        0.43119781
 C            3.07064463        1.34469063        1.52378193
 C            3.13969315        0.16904148        0.76067573
 C            2.78494469        2.54757266        0.88550078
 C            0.83469470        2.72454308        2.33217854
 C            1.60388103        3.27643493        1.31251470
 C           -1.09359631        1.27319265        2.62955134
 C           -0.51262253        2.42295338        2.08113997
 C           -2.24807920       -0.80230699        2.20501369
 C           -2.02490870        0.53979042        1.88528715
 C           -3.11318337       -1.55752986        1.42467925
 C           -1.53439473       -3.47209679        1.68249284
 C           -2.82530848       -2.97170729        1.24433441
 C            0.41577447       -3.73529668        0.14880241
 C           -0.91824907       -4.14856913        0.55484961
 C            0.37462924       -3.45685342       -1.27215838
 C            2.08999363       -1.79601145       -0.95846486
 C            1.20744477       -2.47964659       -1.80200049
 C            3.39766583        0.25415071       -0.60366744
 C            2.88962178       -0.78368067       -1.48389597
 C            2.88134908        2.64912014       -0.55775015
 C            3.25297584        1.52992038       -1.28759277
 C            0.96522381        3.83161015        0.13502577
 C            1.78483466        3.48866585       -1.01813374
 C           -1.17918190        3.07864658        1.05109859
 C           -0.41787676        3.79530749        0.03960993
 C           -2.60040260        1.09852916        0.73733809
 C           -2.28354583        2.40881263        0.38646949
 C           -3.55227282       -1.03348294        0.14760561
 C           -3.27694854        0.28776726       -0.18067125
 C           -2.97536890       -3.28644379       -0.16738663
 C           -1.80209394       -4.01048010       -0.59157385
 C           -1.02071658       -3.47166743       -1.68426623
 C           -3.31063084       -2.05852482       -0.85636068
 C           -1.50271541       -2.40517663       -2.44430065
 C           -2.64763168       -1.69862146       -2.03035651
 C            0.82250540       -1.89911280       -3.00868740
 C           -0.59562148       -1.80980233       -3.31897607
 C            2.52230994       -0.15930305       -2.74452882
 C            2.65006829        1.28007453       -2.58644099
 C            1.46435044       -0.68323462       -3.47273174
 C            1.18302891        3.23172712       -2.24409801
 C            1.65064220        2.12354343       -3.06269195
 C           -1.04839491        3.56250096       -1.24924458
 C           -2.25806357        2.79080781       -1.01616868
 C           -0.26454114        3.30544205       -2.37023488
 C           -3.25575825        0.61769553       -1.53416833
 C           -2.87302362       -0.40435284       -2.49555792
 C           -2.69235091        1.88198832       -1.96984889
 C           -0.84971820       -0.49070676       -3.86694557
 C            0.42708206        0.19779586       -3.98894605
 C            0.50211905        1.56720929       -3.76035157
 C           -0.68143639        2.29761061       -3.33241550
 C           -1.97597297        0.20434285       -3.45972459
 C           -1.88471490        1.62447354       -3.15307412
