   70
C70 / DATE: 7/ 1/2024 / Origin: Program Fullerene / C70 from database
 C            1.27175597       -0.11027070        4.40085525
 C            2.50787425       -0.40047119        3.70992817
 C            2.36762290       -1.70448819        3.08129608
 C            0.40496308       -1.26977113        4.25286900
 C            0.99191185       -2.12523960        3.24401639
 C           -0.93976016       -0.77687199        4.03472686
 C            0.50393506        1.04935277        3.98958943
 C           -0.88935468        0.67562981        4.13129376
 C            0.90472167        1.77779934        2.86771431
 C            2.96159247        0.52007010        2.68731849
 C            2.22539855        1.66886224        2.40268275
 C            2.90053514       -1.60126672        1.73783488
 C            3.45858268       -0.27403471        1.57571725
 C            2.18107645       -2.12745229        0.68229834
 C            0.24557018       -2.42644821        2.11008252
 C            0.89809010       -2.64683472        0.89135551
 C           -1.72456350       -1.35500825        3.03950035
 C           -1.13994262       -2.24934565        2.13182245
 C           -2.91057908       -0.70790263        2.69834153
 C           -1.84753865        1.41493183        3.45725295
 C           -3.01598726        0.71755593        2.95091872
 C           -0.06477078        2.41905767        2.08235243
 C           -1.41135707        2.34149416        2.42434971
 C            0.27457793        2.89909218        0.82045152
 C            2.60679194        2.38680747        1.27459961
 C            1.61050030        3.16112341        0.56470666
 C            3.46794763        0.30995753        0.30835994
 C            3.39771446        1.69951089        0.26524270
 C            2.54597778       -1.74120040       -0.59521279
 C            3.03467178       -0.44053273       -0.80188100
 C            2.04686517       -2.48784217       -1.64765413
 C            0.17450499       -3.13681226       -0.20253995
 C            0.77132097       -3.15599553       -1.46336350
 C           -1.89299893       -2.74400422        1.07297223
 C           -1.21354504       -3.20286863       -0.12789182
 C           -3.53778613       -0.96886547        1.41522346
 C           -3.09857632       -2.04452046        0.66202335
 C           -3.41578642        1.35594615        1.71002935
 C           -2.39233281        2.31937918        1.35485838
 C           -3.73829912        0.31134329        0.75479933
 C           -0.64592877        2.78713819       -0.23397844
 C           -1.94623322        2.35367183        0.03911546
 C           -0.23556861        2.92877140       -1.56932259
 C            2.06272091        3.29613122       -0.80170951
 C            3.16328063        2.36419408       -0.99503403
 C            1.11238814        3.08048881       -1.86905690
 C            2.91070898        0.17325669       -2.06375715
 C            2.85709991        1.55771803       -2.15375319
 C            1.72027628        2.16669938       -2.82264233
 C            2.08466562       -1.94213968       -2.98222742
 C            2.38085994       -0.53701709       -3.13525753
 C           -0.04210046       -2.87932540       -2.63851891
 C            0.80176946       -2.20774045       -3.61095188
 C           -2.00736754       -2.79005152       -1.27628015
 C           -3.06132852       -1.92043467       -0.78469300
 C           -1.36319114       -2.47072024       -2.46908612
 C           -3.31969732        0.46070841       -0.56373559
 C           -2.64026620        1.62921115       -0.92761871
 C           -3.23389572       -0.67439646       -1.37626730
 C           -1.06076483        2.46359472       -2.58971760
 C           -2.33562070        1.85228299       -2.26075588
 C            0.88998306        1.36751738       -3.60619764
 C            1.30718107        0.06747043       -3.91297944
 C            0.33303020       -0.97678008       -4.21311871
 C           -0.46381095        1.69761442       -3.67545349
 C           -1.88750818       -1.45122385       -3.27076769
 C           -2.86941070       -0.53326216       -2.70938135
 C           -2.58185590        0.79245772       -3.21692449
 C           -1.02071512       -0.68656193       -4.16104537
 C           -1.43002501        0.70086059       -4.09772351
