   70
C70 / DATE: 7/ 1/2024 / Origin: Program Fullerene / C70 from database
 C            1.33251384        0.02118849        5.02661592
 C            0.56524789       -1.16978473        4.71909907
 C            1.41441621       -2.06557068        3.96859494
 C            2.58565243       -0.06409719        4.29495804
 C            2.64289175       -1.35471050        3.64890395
 C            2.68057642        1.11292070        3.46307777
 C            0.59548526        1.16748450        4.51422271
 C            1.48626097        1.91589641        3.67082128
 C           -0.67572407       -0.74452716        4.10802715
 C           -0.63470389        0.69491403        3.92916354
 C           -1.21774821       -1.48464080        3.07116238
 C            0.89464253       -2.61569262        2.73237499
 C           -0.44677977       -2.45361163        2.40871235
 C            2.81553332       -1.39945779        2.20626726
 C            1.86443063       -2.36674977        1.68804640
 C            3.15378950        1.00628071        2.15778400
 C            3.03381676       -0.22321204        1.48554911
 C            3.06856893        2.17491728        1.41085339
 C            0.97580004        2.57194649        2.55922791
 C            1.94457450        3.05444429        1.69361003
 C           -1.05600771        1.21370408        2.70059841
 C           -0.25883724        2.15228734        2.01652355
 C           -2.21288457       -0.86154909        2.33678397
 C           -2.01065918        0.48106576        1.98730439
 C           -2.93647055       -1.67465398        1.48647468
 C           -0.83208405       -2.80219444        1.11336378
 C           -2.18728522       -2.72335555        0.82476551
 C            1.39270597       -2.20638681        0.39115431
 C            0.09550113       -2.62596533        0.07592223
 C            2.76959445       -0.23560113        0.11039237
 C            2.01989729       -1.28690162       -0.44223187
 C            3.20973641        2.11519422       -0.02581293
 C            3.08233007        0.88713344       -0.66118714
 C            1.53529922        3.67018596        0.45868292
 C            2.48171253        3.25234716       -0.55837534
 C           -0.59219181        2.49406695        0.68998525
 C            0.21199167        3.37153461       -0.03199851
 C           -2.42047606        0.93611090        0.73154592
 C           -1.57686898        1.77454769        0.00898024
 C           -3.79641604       -1.05492666        0.50785221
 C           -3.46398523        0.28619243        0.08242751
 C           -2.62915653       -2.77898164       -0.54949616
 C           -3.78234929       -1.90523151       -0.66316433
 C           -0.34308658       -2.50909061       -1.25169093
 C           -1.68979322       -2.75304418       -1.57142924
 C            1.66702090       -1.26707620       -1.78709507
 C            0.52753532       -1.95854022       -2.20702796
 C            2.80559314        0.87964343       -2.02539045
 C            2.23433649       -0.31195035       -2.62097524
 C            1.74182635        3.06868416       -1.78682126
 C            0.32595137        3.20228643       -1.46857905
 C            2.12384724        2.02786293       -2.61678025
 C           -1.62123171        1.79032240       -1.39699144
 C           -0.58033590        2.37698464       -2.12370541
 C           -3.52754599        0.30661043       -1.36800520
 C           -3.85657094       -1.04406334       -1.82187350
 C           -2.59907636        1.06165438       -2.08389363
 C           -2.16273074       -2.45763816       -2.84917800
 C           -3.26016138       -1.50281015       -2.98421756
 C            0.14723112       -1.88039495       -3.54673301
 C           -1.21686116       -2.19886969       -3.91045053
 C            1.50771263        0.12177762       -3.79860759
 C            1.14213715        1.50362553       -3.54251173
 C           -0.20163853        1.81478653       -3.34310325
 C            0.53742779       -0.71374866       -4.32343520
 C           -2.41398477        0.78149814       -3.43945375
 C           -2.83688169       -0.51248700       -3.94606851
 C           -1.73713138       -1.09031324       -4.69397034
 C           -1.14356371        1.09871635       -4.06759877
 C           -0.69236677       -0.09098698       -4.77197637
