   70
C70 / DATE: 7/ 1/2024 / Origin: Program Fullerene / C70 from database
 C            1.24630968       -0.12663393        4.43676461
 C            2.53598751       -0.34433606        3.81046544
 C            2.49187439       -1.63541560        3.14675783
 C            0.40933832       -1.28016237        4.14470551
 C            1.13799012       -2.14741197        3.24956788
 C           -0.88322032       -0.79770944        3.71915563
 C            0.49268061        1.06830288        4.09897987
 C           -0.84906794        0.65674174        3.72468348
 C            1.10609700        2.08779534        3.38743825
 C            3.02620017        0.63082804        2.85284872
 C            2.40771559        1.86808372        2.76102653
 C            3.06266433       -1.47864692        1.82042156
 C            3.37419273       -0.07322361        1.63004219
 C            2.47911942       -2.16399618        0.76312793
 C            0.52215745       -2.58859485        2.08466180
 C            1.33730809       -2.93017471        1.01206904
 C           -1.54014636       -1.43134658        2.67129359
 C           -0.83605206       -2.32389843        1.84690878
 C           -2.64350087       -0.76857608        2.15647793
 C           -1.54762016        1.33963284        2.72665616
 C           -2.63665345        0.68730971        2.16026868
 C            0.30909542        2.86561689        2.45849311
 C           -0.91633915        2.36646950        2.01271597
 C            2.38618084        2.54546785        1.47827979
 C            1.23744644        3.43007128        1.49748598
 C            3.10264044        0.50442001        0.38941351
 C            2.67479736        1.83788796        0.31073795
 C            2.70539352       -1.69341242       -0.52864090
 C            2.96904702       -0.33313477       -0.71979705
 C            2.29770959       -2.48099088       -1.60128495
 C            0.77798018       -3.66100310       -0.02288428
 C            1.38814869       -3.57953803       -1.33645538
 C           -1.41122994       -2.77460583        0.64640831
 C           -0.66297766       -3.60726155       -0.19184884
 C           -3.22782510       -1.20759504        0.91060449
 C           -2.59657262       -2.19991060        0.16973815
 C           -3.15900383        1.13274024        0.88452503
 C           -3.74764386       -0.02588536        0.23819166
 C           -1.39132110        2.75670656        0.75183492
 C           -2.42702089        2.04333568        0.13210210
 C            0.73858366        3.87909170        0.29102211
 C           -0.67957928        3.71580757        0.03293769
 C            2.25609388        2.36803872       -0.91505931
 C            1.42409859        3.48838516       -0.92753201
 C            2.81990271        0.23253457       -1.98044846
 C            2.40657636        1.61860167       -2.08019812
 C            1.87187274       -1.84938847       -2.83807814
 C            2.13325759       -0.50585323       -3.02737146
 C            0.32363725       -3.52631375       -2.32158675
 C           -0.94155633       -3.64547465       -1.61983903
 C            0.54905307       -2.35807490       -3.15600829
 C           -2.96802740       -2.36951431       -1.16307873
 C           -2.02570121       -2.93688997       -2.10611438
 C           -3.86648354       -0.03504499       -1.14049608
 C           -3.64606998       -1.28293593       -1.84985570
 C           -2.59530071        2.08108423       -1.26195718
 C           -3.23793999        1.02619178       -1.90750035
 C           -0.84871304        3.79255860       -1.40110703
 C            0.46771909        3.65369358       -2.00723072
 C           -1.73181008        2.84499413       -2.03845869
 C            1.40221280        1.70093099       -3.13471114
 C            1.07296963        0.34577466       -3.53109678
 C            0.38502374        2.63307597       -3.03538629
 C           -0.99356345        2.18109719       -3.10161988
 C           -0.50715143       -1.47202519       -3.36896339
 C           -1.80145915       -1.93293506       -3.13671678
 C           -2.89044734       -0.98765480       -3.05800217
 C           -2.57738485        0.42145919       -3.05346721
 C           -0.25052576       -0.09456913       -3.47280053
 C           -1.29116717        0.84540877       -3.37321617
