   70
C70 / DATE: 7/ 1/2024 / Origin: Program Fullerene / C70 from database
 C            1.50082253       -0.00762970        4.78150030
 C            0.72417218       -1.22077861        4.65777045
 C            1.26659883       -2.00890831        3.55932436
 C            2.61077581       -0.11652619        3.86074767
 C            2.42171416       -1.31062148        3.04898482
 C            2.70208421        1.15044486        3.17008787
 C            0.66245700        1.08661076        4.31540807
 C            1.38001206        1.75395462        3.25048285
 C           -0.66202902       -0.81784938        4.56271355
 C           -0.64688712        0.53704221        4.02989892
 C           -1.51965871       -1.71944691        3.96888470
 C            0.36021278       -2.58199780        2.67708338
 C           -0.91776776       -2.78768519        3.18623555
 C            0.52683897       -2.40129804        1.28869410
 C            2.60826677       -1.19616502        1.67765820
 C            1.65414950       -1.72483672        0.79155589
 C            3.31012284        1.13454746        1.93118164
 C            3.41438496       -0.14895093        1.25128449
 C            2.82586668        2.05733841        0.92817942
 C            0.71706998        2.05664394        2.06198769
 C            1.48979931        2.43664008        0.96054635
 C           -1.23568220        0.77897999        2.78580555
 C           -0.59443805        1.60343721        1.85210814
 C           -2.56007055       -1.19676279        3.11589475
 C           -2.28806908       -0.04413300        2.37138728
 C           -1.94945993       -3.28413671        2.31461314
 C           -3.07801475       -2.37098172        2.45181201
 C           -0.48595134       -2.80737979        0.40197848
 C           -1.65881909       -3.38181875        0.90493742
 C           -0.45428569       -2.39126505       -0.93938038
 C            1.76270876       -1.45648402       -0.58695528
 C            0.69502431       -1.76718216       -1.44658353
 C            3.50657862        0.13278264       -0.15722418
 C            3.36569776        1.57161430       -0.31835480
 C            2.84059746       -0.68572083       -1.05638351
 C            2.80483618        2.01658890       -1.50133712
 C            0.86112708        2.72903689       -0.24758253
 C            1.62280647        2.76312047       -1.42608289
 C           -1.19196635        1.82852708        0.61435110
 C           -0.52751717        2.61814185       -0.31948780
 C           -2.82056913        0.10221428        1.08175950
 C           -2.29037722        1.06054119        0.21429978
 C           -3.65502784       -2.21156062        1.14506447
 C           -2.91086440       -3.08390573        0.25202138
 C           -3.63177363       -0.89549417        0.54106767
 C           -1.64397090       -2.38573434       -1.69336765
 C           -2.84977077       -2.41201902       -1.01528182
 C           -3.55144436       -1.14553797       -0.87953979
 C           -1.68050358       -1.67138034       -2.87686782
 C            0.73352257       -1.37643625       -2.79377455
 C           -0.44866803       -1.29717790       -3.51589280
 C            2.85189616       -0.24741345       -2.37463075
 C            2.99124852        1.18269350       -2.59539938
 C            1.84695822       -0.71856728       -3.29412359
 C            2.35976056        1.51173388       -3.85242785
 C            1.66846999        0.31718510       -4.30794589
 C            1.02955910        3.21349527       -2.60490187
 C            1.41964675        2.61345660       -3.87166134
 C           -1.18662361        2.96429058       -1.48946926
 C           -0.40895159        3.39323045       -2.63727468
 C           -2.69417369        1.06985317       -1.13041394
 C           -3.14310263       -0.11761733       -1.71641328
 C           -2.56046466       -0.51483932       -2.91541915
 C           -2.24642497        2.09534251       -1.96341289
 C           -0.73159060       -0.10887033       -4.30677614
 C            0.32327615        0.70608624       -4.69215715
 C            0.21277965        2.14870864       -4.53178129
 C           -0.92006111        2.69857049       -3.80848230
 C           -1.95635896        0.47897914       -3.77752453
 C           -1.97050440        1.80328048       -3.36299918
