   70
C70 / DATE: 7/ 1/2024 / Origin: Program Fullerene / C70 from database
 C            1.41221677        0.04750138        4.72183346
 C            0.62062336       -1.14855073        4.50687728
 C            1.35668929       -2.02187509        3.61153369
 C            2.59190645       -0.04466411        3.87845603
 C            2.57067266       -1.32353840        3.20928960
 C            2.64300981        1.14156614        3.06027575
 C            0.62785397        1.18080995        4.26135282
 C            1.43051443        1.91049700        3.31041135
 C           -0.71008720       -0.73354632        4.11863309
 C           -0.65799947        0.69066761        3.82055632
 C           -1.42139698       -1.55725075        3.26401231
 C            0.65951397       -2.75721510        2.65269227
 C           -0.73229904       -2.64838893        2.58119495
 C            1.36349799       -3.21445921        1.54161720
 C            2.96662945       -1.39863174        1.87804635
 C            2.60436450       -2.54788968        1.18229267
 C            3.09187837        1.04101762        1.74643695
 C            3.27738399       -0.22616706        1.16665554
 C            2.83398006        2.13488350        0.92425324
 C            0.81032435        2.51013238        2.22108246
 C            1.65130207        2.93048733        1.20434718
 C           -1.17293306        1.14936436        2.60791514
 C           -0.51361619        2.16726819        1.89858627
 C           -2.31242925       -0.94786390        2.29771056
 C           -2.16432834        0.39944284        1.97384588
 C           -1.41575705       -2.86546657        1.31116101
 C           -2.49736281       -1.90282564        1.22380146
 C            0.65814902       -3.52037540        0.30733600
 C           -0.67895907       -3.15584750        0.16904290
 C            2.74938478       -2.61185942       -0.25995320
 C            1.58625135       -3.30622757       -0.79058613
 C            3.59552452       -0.31490812       -0.19146082
 C            3.27330473       -1.52076486       -0.93562560
 C            2.96915221        2.02424500       -0.51723753
 C            3.34498121        0.81553288       -1.07015544
 C            1.08458684        3.34879445       -0.05250031
 C            1.88275848        2.77517005       -1.12250630
 C           -1.07832852        2.63347914        0.70073197
 C           -0.29050905        3.36109740       -0.20718664
 C           -2.69452102        0.84916429        0.76861038
 C           -2.30006965        2.09293884        0.27954635
 C           -2.85630386       -1.41237513       -0.01909267
 C           -3.26637317       -0.08574076       -0.09847259
 C           -1.17390627       -2.77287339       -1.08255181
 C           -2.36032511       -2.03501784       -1.16412050
 C            1.08429983       -2.96185858       -2.03552340
 C           -0.35374832       -2.87352686       -2.20666074
 C            2.70917305       -1.12196108       -2.21707752
 C            2.63571398        0.32746387       -2.24069062
 C            1.67682783       -1.85712503       -2.77741666
 C            1.21836317        2.27914949       -2.24341643
 C            1.46246719        0.96318425       -2.65499283
 C           -0.74230383        3.53276329       -1.50869995
 C            0.01125296        2.88715102       -2.57516163
 C           -2.93476930        2.60865668       -0.84867558
 C           -2.14775841        3.36862705       -1.79148920
 C           -3.89294244        0.34311704       -1.25898526
 C           -3.80598084        1.74295239       -1.62435235
 C           -2.79630121       -1.58099241       -2.40943395
 C           -3.70200064       -0.44147298       -2.46393338
 C           -0.58249134       -1.99416757       -3.33773023
 C            0.59719709       -1.15657426       -3.45040163
 C            0.46304871        0.22540705       -3.30877809
 C           -1.82314638       -1.40042109       -3.47361227
 C           -0.93918047        2.18085224       -3.40670103
 C           -2.25433950        2.71433319       -3.08390497
 C           -3.38454555        1.81316283       -3.01701394
 C           -3.21040147        0.45734420       -3.49496862
 C           -0.76878163        0.81470252       -3.60828931
 C           -1.87860200       -0.00050434       -3.85077931
