   70
C70 / DATE: 7/ 1/2024 / Origin: Program Fullerene / C70 from database
 C            1.16998692       -0.09002294        4.47911623
 C            2.49538854       -0.31196412        3.93941640
 C            2.47673577       -1.59598850        3.25616429
 C            0.35185665       -1.23494619        4.10864762
 C            1.10332593       -2.03785186        3.17171772
 C           -0.93192757       -0.73703916        3.68529932
 C            0.44620846        1.11382671        4.10619038
 C           -0.89422974        0.71681180        3.71772651
 C            1.08764370        2.11138840        3.38743326
 C            3.06200736        0.66864980        3.02877827
 C            2.42010249        1.88306459        2.83459290
 C            3.20854229       -1.44653731        2.02340637
 C            3.58155378       -0.04799960        1.87750012
 C            2.75983695       -2.10357269        0.89015964
 C            0.55845951       -2.28981741        1.91249358
 C            1.41173094       -2.50609716        0.82301499
 C           -1.56848228       -1.33549502        2.60953704
 C           -0.81163604       -2.08370282        1.69052754
 C           -2.69823317       -0.67792646        2.15834308
 C           -1.58011266        1.41295487        2.71906879
 C           -2.68704135        0.77690236        2.16920011
 C            0.33064852        2.86113911        2.40120184
 C           -0.90685990        2.38256034        1.96393881
 C            2.45034311        2.48703648        1.51573552
 C            1.28872896        3.35443714        1.42871219
 C            3.52189185        0.52018885        0.60073273
 C            2.81600717        1.71658334        0.41046010
 C            3.40887130       -1.74890398       -0.28032113
 C            3.70531026       -0.34047663       -0.48131423
 C            2.94876283       -2.29692891       -1.52867170
 C            0.85953679       -2.90185194       -0.40086379
 C            1.66218412       -2.95149807       -1.54378699
 C           -1.36118219       -2.41550410        0.44219043
 C           -0.52964662       -2.95314174       -0.55336856
 C           -3.32209071       -1.10638677        0.93512298
 C           -2.69101738       -2.06181191        0.15160724
 C           -3.21588446        1.22229303        0.89652630
 C           -3.87641815        0.07717054        0.29892402
 C           -1.35901409        2.73264805        0.68144902
 C           -2.44585339        2.06182003        0.10192434
 C            0.82808485        3.71791148        0.17842765
 C           -0.59279829        3.60702856       -0.08758400
 C            2.27505276        2.02770698       -0.84397613
 C            1.50334400        3.17744099       -0.98617557
 C            3.17629854        0.02238795       -1.78142434
 C            2.88928223       -1.20831991       -2.49257344
 C            2.27677919        1.07271788       -1.86161188
 C            1.07690450       -2.62443058       -2.82763694
 C            1.62536481       -1.33076712       -3.19246861
 C           -1.04076379       -3.23248314       -1.82193346
 C           -0.27854404       -2.81998414       -2.98525136
 C           -3.22753235       -2.29563284       -1.10963650
 C           -2.42325972       -2.93353659       -2.12256518
 C           -4.06956417        0.05641819       -1.07026749
 C           -3.96500996       -1.22209274       -1.75583545
 C           -2.62993182        2.05604010       -1.29149459
 C           -3.39042199        1.04977941       -1.88605316
 C           -0.73559320        3.59091152       -1.52598508
 C            0.56648875        3.26427993       -2.08922158
 C           -1.70254736        2.69123831       -2.10920142
 C            1.21070502        1.00416380       -2.76832461
 C            0.77113410       -0.23183183       -3.24638844
 C            0.39749104        2.11072506       -2.95216354
 C           -1.02555605        1.90217213       -3.12736594
 C           -1.05174500       -1.76027047       -3.60078709
 C           -2.43325137       -2.07321829       -3.30037213
 C           -3.34875304       -0.98567656       -3.04907937
 C           -2.83215146        0.36697499       -3.04214473
 C           -0.59194978       -0.44380126       -3.49296974
 C           -1.50359093        0.62013802       -3.38646917
