   70
C70 / DATE: 7/ 1/2024 / Origin: Program Fullerene / C70 from database
 C            1.29653315       -0.16152323        4.56404925
 C            2.59012845       -0.30409825        3.92631059
 C            2.60558079       -1.59718799        3.26344276
 C            0.47627075       -1.29664284        4.15980371
 C            1.24656181       -2.08882506        3.22724605
 C           -0.80691083       -0.78089972        3.73380883
 C            0.52027017        1.04148993        4.32654968
 C           -0.85315341        0.61683876        4.12123898
 C            1.04621657        2.06049734        3.53559010
 C            3.01969666        0.69258844        2.95968967
 C            2.27032816        1.84656765        2.77399281
 C            3.29094865       -1.43741396        1.99795462
 C            3.52563682       -0.01486292        1.79773707
 C            2.85391289       -2.17278568        0.90088180
 C            0.70731893       -2.39609260        1.98463701
 C            1.57807908       -2.75047736        0.95311642
 C           -1.32173548       -1.15178079        2.49221856
 C           -0.61412632       -2.04119195        1.67679817
 C           -2.35625714       -0.39175122        1.94483622
 C           -1.72720961        1.44880823        3.44298226
 C           -2.66526528        0.84280419        2.51703939
 C            0.15241636        2.85748287        2.71159596
 C           -1.21761946        2.65004545        2.79257188
 C            2.04755819        2.33598672        1.42286370
 C            0.76361130        3.01005145        1.39962159
 C            3.33211447        0.50513154        0.51844998
 C            2.42437296        1.55587764        0.33447962
 C            3.35613880       -1.77638645       -0.33263882
 C            3.58421095       -0.35608313       -0.54242288
 C            2.80123046       -2.32852693       -1.55404602
 C            1.03808429       -3.33622660       -0.18564656
 C            1.69347338       -3.15841534       -1.47170740
 C           -1.14155936       -2.39962145        0.43456586
 C           -0.39321203       -3.23045704       -0.39990067
 C           -2.83818339       -0.68912850        0.66883445
 C           -2.24872452       -1.71428406       -0.07520184
 C           -3.72713233        0.19638374        0.05053847
 C           -3.12770955        1.91545596        1.66486309
 C           -2.02952002        2.86750422        1.60696405
 C           -3.76980010        1.58337123        0.48547057
 C           -0.03173399        2.91939160        0.26175407
 C           -1.41168206        3.10613248        0.37987857
 C            1.72134980        1.67573611       -0.87159346
 C            0.50262044        2.37489600       -0.91198485
 C            3.09514829       -0.02610865       -1.86273331
 C            2.84381928       -1.27938053       -2.55891045
 C            2.20215643        1.02745922       -2.01187083
 C            1.93148369       -1.28972716       -3.60488488
 C            0.66217759       -3.08975781       -2.49523743
 C           -0.62631077       -3.22560884       -1.83392601
 C            0.80489017       -2.21282315       -3.56682430
 C           -2.64031016       -1.91363800       -1.39965340
 C           -1.73397310       -2.55876542       -2.33190550
 C           -3.86252105        0.19588632       -1.39748966
 C           -3.29515287       -0.83873465       -2.12009908
 C           -3.49223047        2.39715035       -0.68187550
 C           -2.20252980        3.06262638       -0.76167375
 C           -3.63956581        1.55285811       -1.85289488
 C           -0.23695413        2.44281570       -2.09813929
 C           -1.60091238        2.70394473       -2.03079652
 C           -2.51557714        1.81206132       -2.73027480
 C            1.51758338        1.14320977       -3.21432620
 C            1.43934944       -0.01448970       -4.09210133
 C            0.22837840        1.79817235       -3.23719973
 C           -0.36095204       -1.52196396       -4.09781602
 C           -1.60030526       -1.68829089       -3.49253432
 C           -2.46432726       -0.53235685       -3.27902458
 C           -1.97584045        0.76677857       -3.47276455
 C            0.05195743       -0.18814987       -4.48388950
 C           -0.69261081        0.94845417       -3.97838749
