   70
C70 / DATE: 7/ 1/2024 / Origin: Program Fullerene / C70 from database
 C            1.25914713       -0.19757790        5.35304938
 C            0.41788647       -1.36924722        5.19939638
 C            1.09630507       -2.29614183        4.30774697
 C            2.47539008       -0.42425389        4.59271717
 C            2.39043677       -1.73310970        3.97395662
 C            2.67612228        0.73066146        3.73928713
 C            0.56899663        0.93105070        4.74685550
 C            1.48551315        1.56677090        3.83269097
 C           -0.80014429       -0.94775639        4.53493694
 C           -0.68839535        0.46387333        4.21430244
 C            0.17883551       -2.62887267        3.22817919
 C           -1.03693288       -1.86419457        3.43801590
 C            0.66531461       -2.74631417        1.92327609
 C            2.85342319       -1.87615238        2.67490962
 C            2.03003096       -2.57304961        1.69553352
 C            3.25735980        0.56048996        2.48499873
 C            3.45326278       -0.73420138        1.99462947
 C            3.10984042        1.60406478        1.57895435
 C            0.99289726        2.12693161        2.65843277
 C            1.94450256        2.46564551        1.71249643
 C           -1.06490511        0.86162094        2.93398218
 C           -0.30401735        1.80111290        2.22405084
 C           -1.66645592       -1.37063768        2.31062557
 C           -1.88111998        0.00237867        2.21093362
 C           -0.22891746       -2.58295666        0.85504284
 C           -1.49691780       -2.06885541        1.12416633
 C            0.25907127       -2.51026538       -0.45365816
 C            2.48116631       -2.14525005        0.38620985
 C            3.34960066       -0.99531856        0.56372290
 C            1.58522470       -2.12533468       -0.66845227
 C            3.30184143        1.36586189        0.16091958
 C            3.23687450        0.06427992       -0.33113439
 C            1.52706741        2.84995085        0.38513109
 C            2.57624153        2.42069427       -0.52222441
 C           -0.71035952        2.12650540        0.91519739
 C            0.19825915        2.68318850        0.00942051
 C           -2.44301895        0.45997917        1.03263276
 C           -1.91151258        1.59925283        0.42744669
 C           -2.31039790       -1.69394770        0.06242900
 C           -3.01046456       -0.49792353        0.20980596
 C           -0.65102355       -2.41219552       -1.51260107
 C           -1.98863712       -2.13193318       -1.22150712
 C           -0.15526130       -2.15492238       -2.79164872
 C            1.88891824       -1.32952797       -1.76712873
 C            2.63870370       -0.16193031       -1.57619432
 C            1.13378549       -1.50249890       -2.91926636
 C            2.24691596        2.23791731       -1.84899316
 C            2.45630647        0.92536731       -2.43065362
 C           -0.10966028        2.70258152       -1.35264358
 C            0.93232951        2.65786151       -2.28276480
 C           -2.33870001        1.91232508       -0.87061663
 C           -1.41212594        2.44085172       -1.78153451
 C           -3.79496007       -0.04773492       -0.83257336
 C           -3.49935978        1.27923520       -1.33492024
 C           -2.88936691       -1.85870310       -2.25235145
 C           -3.95769146       -0.91771442       -1.97579086
 C           -1.02750947       -1.61570076       -3.82025494
 C           -2.39440215       -1.57296661       -3.58910302
 C            0.99305424       -0.41243037       -3.86863975
 C            1.55407242        0.81944451       -3.56692794
 C            0.71486747        2.01151636       -3.56044843
 C           -0.34961521       -0.47315228       -4.42496160
 C           -1.64932179        2.38339664       -3.16055848
 C           -0.58220585        1.93845037       -4.03579734
 C           -1.04358249        0.71130068       -4.66010213
 C           -3.83943969        1.29159479       -2.74486812
 C           -4.14992790       -0.07463198       -3.13981729
 C           -3.17772516       -0.47725058       -4.13848284
 C           -2.87196897        1.80658495       -3.68011399
 C           -2.49352040        0.72191309       -4.57934903
