   70
C70 / DATE: 7/ 1/2024 / Origin: Program Fullerene / C70 from database
 C            1.24341115        0.09203892        4.49405390
 C            2.47173362       -0.12108216        3.76373782
 C            2.52684085       -1.52772932        3.41735549
 C            0.43672143       -1.11712593        4.37837125
 C            1.19807050       -2.08265134        3.61406143
 C           -0.86725196       -0.72121980        3.88778536
 C            0.39966805        1.20076718        4.10459163
 C           -0.96659311        0.70816789        4.10275089
 C            0.79959012        2.05388761        3.07600091
 C            2.69508901        0.63737244        2.54651513
 C            1.80139857        1.64311664        2.18317816
 C            3.11967608       -1.63227121        2.09770441
 C            3.15045075       -0.29330230        1.52686205
 C            2.70345210       -2.67590478        1.29004217
 C            0.59755609       -2.74167083        2.54368623
 C            1.44569537       -3.33557965        1.61082869
 C           -1.31928709       -1.25509739        2.68602073
 C           -0.71087132       -2.40299013        2.16546792
 C           -2.19753225       -0.51213303        1.88813745
 C           -1.91067240        1.42328081        3.38472285
 C           -2.59401654        0.76091695        2.28299318
 C           -0.12747696        3.00267899        2.65698339
 C           -1.53465426        2.74319958        2.91525695
 C           -0.02608585        3.56772264        1.32485952
 C            1.72167724        2.00814570        0.83716376
 C            0.99623117        3.14695788        0.47990193
 C            2.73842157       -0.09939505        0.20879113
 C            2.15555753        1.11061729       -0.14955295
 C            2.70486142       -2.48219645       -0.14373632
 C            2.63594736       -1.18792385       -0.66098140
 C            0.90715220       -3.87134079        0.37340012
 C            1.83521374       -3.50630260       -0.68812768
 C           -1.28373257       -3.00745531        1.04796235
 C           -0.45944395       -3.79543001        0.14680739
 C           -2.44477431       -0.91359741        0.57829156
 C           -2.21385331       -2.23768178        0.24034638
 C           -2.59040147        0.04920960       -0.42692878
 C           -2.85755356        1.75368731        1.25559765
 C           -2.26863053        3.00012383        1.69168844
 C           -1.37256355        3.67342787        0.77812069
 C           -2.70734834        1.39960707       -0.08071647
 C           -1.52198953        3.45182915       -0.58361986
 C           -2.32925707        2.38009142       -1.00162975
 C            0.88863066        3.48943606       -0.86542048
 C           -0.43395421        3.81350366       -1.36765375
 C            1.88232434        1.35633401       -1.48961316
 C            1.50796195        2.63813906       -1.86113202
 C            2.12274304       -1.00270329       -1.95147190
 C            1.72032827        0.27734321       -2.36965520
 C            1.36542855       -3.33724655       -1.97842315
 C            1.74800668       -2.13031506       -2.68601213
 C           -0.94965676       -3.58875850       -1.20600531
 C           -2.01523749       -2.59588209       -1.14939137
 C           -0.04501695       -3.55736865       -2.25968336
 C           -2.49283333       -0.31437781       -1.77645923
 C           -2.09776706       -1.61003895       -2.12887611
 C           -2.42668660        2.07756983       -2.35679981
 C           -2.52622575        0.68137647       -2.75616446
 C           -0.45148882        3.53123613       -2.78464225
 C            0.78793690        2.83451522       -3.09947433
 C           -1.54853850        2.74475610       -3.30250369
 C            1.00066031        0.43652206       -3.57095088
 C           -1.74663249        0.51127903       -3.97480189
 C            0.45047152        1.67376499       -3.88978050
 C           -0.97690892        1.72766882       -4.16042951
 C            0.81430158       -1.99288239       -3.77767344
 C           -0.37012109       -2.76559347       -3.43095519
 C           -1.47575677       -1.82789063       -3.35676975
 C            0.37080644       -0.66764823       -4.13341971
 C           -1.08320152       -0.68950469       -4.16058314
