   70
C70 / DATE: 7/ 1/2024 / Origin: Program Fullerene / C70 from database
 C            1.57447192        0.01324954        4.75919540
 C            0.75401565       -1.17973979        4.70856436
 C            1.35699243       -2.10300014        3.76420560
 C            2.63270636       -0.13648572        3.77459691
 C            2.46263781       -1.40770320        3.11656393
 C            2.62791510        1.04350958        2.95309852
 C            0.74317149        1.12998971        4.34173716
 C            1.46456994        1.83924419        3.31778133
 C           -0.61208774       -0.76194616        4.47185356
 C           -0.56280758        0.61563903        4.00296709
 C           -1.44242943       -1.64715454        3.81110756
 C            0.51862572       -2.89897342        2.98598517
 C           -0.85926991       -2.84446614        3.21698684
 C            1.00006039       -3.34878591        1.75570566
 C            2.58160911       -1.48278328        1.73043602
 C            2.10758075       -2.63901163        1.13252357
 C            2.91594698        0.92979607        1.59768913
 C            2.73272967       -0.31193644        0.95889979
 C            2.69665408        2.08536282        0.86848515
 C            0.75867494        2.42636250        2.27723431
 C            1.55107352        2.89789805        1.24681878
 C           -1.11085010        0.93761589        2.75793203
 C           -0.52070578        1.93596389        1.95874158
 C           -2.36898194       -1.11876449        2.83235494
 C           -2.08566258        0.09819470        2.21270556
 C           -1.78693473       -3.29350570        2.19248326
 C           -2.77387560       -2.24057882        2.01428121
 C            0.08572069       -3.76455508        0.69929919
 C           -1.28006158       -3.65080876        0.88139783
 C            1.92079349       -2.68281916       -0.29616150
 C            0.66083911       -3.35664530       -0.56659594
 C            2.54876943       -0.36321947       -0.44355136
 C            2.25777024       -1.58391650       -1.07037712
 C            2.72893820        2.04013601       -0.57038181
 C            2.59425381        0.81607097       -1.21077295
 C            0.93343694        3.35972143        0.03213537
 C            1.91498638        3.15503120       -1.01377803
 C           -1.09232494        2.23855987        0.70821937
 C           -0.39023419        3.02739223       -0.22087012
 C           -2.55061967        0.33716027        0.92026766
 C           -2.24517836        1.55430000        0.30830069
 C           -2.93139649       -2.02123809        0.59740128
 C           -2.07003146       -2.94317404       -0.11449628
 C           -2.99486550       -0.72624932        0.12157620
 C           -0.14979472       -2.85686387       -1.58248906
 C           -1.47438568       -2.49761318       -1.29905522
 C            1.77829822       -1.58604317       -2.37417094
 C            0.50245357       -2.23721871       -2.64018406
 C            2.17960926        0.81628279       -2.54934440
 C            1.83073302       -0.37790195       -3.16416874
 C            1.47135280        3.15557031       -2.31841050
 C            1.81360895        2.02073567       -3.15479772
 C           -0.85407289        3.15398767       -1.53332353
 C            0.06519389        3.41681577       -2.55640273
 C           -2.80805363        1.81876970       -0.93968698
 C           -2.14520645        2.74005584       -1.83908295
 C           -2.93144412       -0.57108120       -1.24956105
 C           -2.05148681       -1.39991649       -1.96143272
 C           -3.23973643        0.68484857       -1.73465577
 C           -0.24289158       -1.38665466       -3.54351343
 C            0.69941000       -0.41892077       -4.08059289
 C           -1.52044447       -0.97369889       -3.18571308
 C            0.85441607        2.01280511       -4.25014894
 C           -0.19271564        2.96683017       -3.91348344
 C            0.21640030        0.76347517       -4.62159953
 C           -2.48677537        2.33502152       -3.19622995
 C           -2.99496868        0.97767499       -3.12532145
 C           -2.07853972        0.12114057       -3.84540160
 C           -1.46795015        2.36097706       -4.22490190
 C           -1.21963635        0.98718510       -4.63887430
