   70
C70 / DATE: 7/ 1/2024 / Origin: Program Fullerene / C70 from database
 C            1.45839204       -0.22378519        4.91282943
 C            0.60544704       -1.39311567        4.92829627
 C            1.10936049       -2.32176993        3.92914328
 C            2.49812121       -0.45569646        3.92651906
 C            2.19860983       -1.68358847        3.22184133
 C            2.60136807        0.74685914        3.14127926
 C            0.66449689        0.89943920        4.43920325
 C            1.44067003        1.57004138        3.42414221
 C           -0.71541207       -0.97625246        4.49313882
 C           -0.64268711        0.40666640        4.06748516
 C           -0.02404319       -2.76485201        3.15371120
 C           -1.16362065       -1.94812846        3.52410650
 C            0.14365673       -3.00513781        1.79705750
 C            2.16554813       -1.65573989        1.82599667
 C            1.27159857       -2.48566878        1.14000790
 C            2.94931744        0.63711856        1.80821083
 C            2.76214875       -0.58634243        1.14642208
 C            2.78287249        1.78354105        1.05802384
 C            0.78777476        2.11859215        2.32473927
 C            1.59515911        2.49889144        1.25601171
 C           -1.14966151        0.73471803        2.81049123
 C           -0.52907583        1.72707099        2.04141672
 C           -1.96741639       -1.51954374        2.48044252
 C           -2.03402994       -0.14853918        2.18936259
 C           -1.02071767       -3.17256809        1.05379017
 C           -2.13304601       -2.40974326        1.42680705
 C           -0.87774316       -3.60732146       -0.25526197
 C            1.29829151       -2.50671940       -0.25815968
 C            0.38293560       -3.32918322       -0.91390497
 C            2.78183702       -0.59322881       -0.25783456
 C            1.92077599       -1.45694785       -0.95159507
 C            3.36434161        1.77681086       -0.19229981
 C            3.30960547        0.52352569       -0.91992454
 C            3.04469756        2.85166895       -1.10332784
 C            0.99921311        3.14314590        0.17685153
 C            1.82496423        3.58596261       -0.85698466
 C           -1.06682308        2.05159513        0.79038683
 C           -0.36715565        2.93146726       -0.04168348
 C           -2.67763451        0.24781316        1.01608163
 C           -2.17371447        1.34155656        0.29147117
 C           -3.11039245       -2.09579760        0.49722622
 C           -3.47932116       -0.69967541        0.37866070
 C           -1.94627499       -3.39855503       -1.21545540
 C           -3.05870231       -2.66230893       -0.83755329
 C            0.10885998       -3.12126451       -2.31822121
 C           -1.33217713       -3.15665542       -2.51018238
 C            1.53055470       -1.13671433       -2.26521263
 C            0.60900444       -1.92070340       -2.94105067
 C            2.84815277        0.83890690       -2.25886140
 C            2.93667616        2.27561634       -2.42944563
 C            1.75407065        0.14482577       -2.75028033
 C            1.26741981        3.89586343       -2.15532519
 C            1.85941624        2.96273663       -3.10584346
 C           -0.97646207        3.38337671       -1.20566433
 C           -0.16606696        3.83626824       -2.32085338
 C           -2.68326426        1.63707196       -0.98793543
 C           -2.04881797        2.59619303       -1.77075819
 C           -3.91457209       -0.47849907       -0.97862122
 C           -3.61120325       -1.67544779       -1.75037340
 C           -3.37850855        0.65500445       -1.68678380
 C           -1.71117387       -1.97954563       -3.27613009
 C           -0.49702526       -1.25097792       -3.60071817
 C           -2.84860924       -1.27171989       -2.92126341
 C           -2.81097365        0.17743185       -2.93644647
 C            0.72357728        0.80238023       -3.44241303
 C            0.77563708        2.17830920       -3.65890084
 C           -0.43039085        2.93846354       -3.43253211
 C           -1.63023614        2.20075615       -3.10940605
 C           -0.49876756        0.14334275       -3.62375588
 C           -1.69885178        0.84870584       -3.43018996
