   70
C70 / DATE: 7/ 1/2024 / Origin: Program Fullerene / C70 from database
 C            0.93655200        0.12095965        5.76864464
 C            0.22327634       -1.08800653        5.40054255
 C            1.22038369       -2.08859256        5.08603971
 C            2.31598448       -0.03431865        5.32782086
 C            2.47615173       -1.39156575        4.84908111
 C            2.61057335        1.05293514        4.42058634
 C            0.35590914        1.22316442        5.02128263
 C            1.43802344        1.91563555        4.36691470
 C           -0.76616871       -0.73758902        4.39050004
 C           -0.71475589        0.69941769        4.19174851
 C           -0.94645942       -1.55145749        3.27139779
 C            0.98757801       -2.94243426        3.94340847
 C           -0.18897307       -2.71681623        3.12255830
 C            2.84139514       -1.62106808        3.45669490
 C            2.13573943       -2.81346302        3.05736274
 C            2.98311535        0.75360345        3.04524613
 C            2.91069287       -0.55208045        2.55913724
 C            1.25476653        2.28880209        2.98120689
 C            2.41011386        1.81342587        2.25028594
 C           -0.88564084        1.18404598        2.89507502
 C            0.01118554        2.12454477        2.37190040
 C           -1.53356727       -0.99837415        2.12920486
 C           -1.59938064        0.39145571        1.99717462
 C           -1.58878863       -1.77322811        0.97327514
 C            0.20558799       -3.11030293        1.78690683
 C            1.63307525       -2.88425095        1.70366981
 C           -0.54505181       -2.65710161        0.72054892
 C            2.62720888       -0.75207131        1.19443032
 C            2.06848289       -1.96221288        0.75733265
 C            2.22700740        1.60280512        0.89860714
 C            2.55415112        0.36444011        0.35022127
 C           -0.02699409        2.34742530        0.99594545
 C            1.18265083        2.29117229        0.30430327
 C           -1.92462215        0.92755252        0.75084548
 C           -1.18608032        2.01640313        0.29695711
 C           -2.25130833       -1.26842028       -0.13863914
 C           -2.52901328        0.09840565       -0.19156484
 C           -2.00916306       -1.91208183       -1.34380455
 C            0.11115436       -2.51453280       -0.49484481
 C            1.39840935       -1.97629393       -0.46783717
 C           -0.68810313       -2.27470677       -1.60253250
 C            2.26014950        0.18834549       -1.00555356
 C            1.74028369       -1.03567037       -1.43345063
 C            1.13870671        2.28563139       -1.07616868
 C            1.91200560        1.32769266       -1.72952435
 C           -1.23781698        2.33933095       -1.05914575
 C           -0.03969128        2.70174355       -1.67789509
 C           -2.90300200        0.64106873       -1.42618343
 C           -2.27808949        1.82666848       -1.83745573
 C           -2.82759267       -1.58232220       -2.40722297
 C           -3.39455898       -0.25000467       -2.38428018
 C           -2.31758042       -1.80448446       -3.74223322
 C           -0.08568122       -1.83058787       -2.77903000
 C            1.10336715       -1.09980662       -2.68109974
 C           -0.87995601       -1.73955057       -3.92239111
 C            1.77528392        1.20440537       -3.10471864
 C            1.37276280       -0.09326123       -3.60999181
 C           -0.01046902        2.92611994       -3.04640444
 C            0.99524269        2.21000114       -3.80675554
 C           -2.40928606        2.28480012       -3.15143826
 C           -1.25160379        2.87665675       -3.79201495
 C           -3.57303933        0.17239284       -3.75991908
 C           -2.94193570       -0.82564013       -4.61182803
 C           -3.06864226        1.46699880       -4.15181765
 C           -0.61123833       -0.71402067       -4.91567615
 C            0.48127164        0.12443954       -4.74034355
 C            0.33076723        1.56228295       -4.92032482
 C           -0.99820992        2.14158277       -5.02219239
 C           -1.88847518       -0.16346538       -5.35647069
 C           -2.12807060        1.26342783       -5.24610434
