   70
C70 / DATE: 7/ 1/2024 / Origin: Program Fullerene / C70 from database
 C            1.04017299       -0.05691136        4.68174891
 C            2.33695623       -0.39558084        4.16079379
 C            2.24503859       -1.75104653        3.63158732
 C            0.21637098       -1.24839320        4.55102941
 C            0.83916436       -2.05930478        3.52690654
 C           -1.13026849       -0.79173636        4.32939937
 C            0.30644089        1.01316630        4.04104942
 C           -1.07753123        0.66181699        4.24003429
 C            0.71218648        1.47375750        2.78154504
 C            2.87622126        0.41326302        3.09041831
 C            2.03142104        1.25320571        2.35592894
 C            3.03542567       -1.77221807        2.42677454
 C            3.73204848       -0.49719646        2.36677327
 C            2.47162596       -2.26117321        1.25410815
 C            0.25422390       -2.13493926        2.25724707
 C            1.06957763       -2.28702652        1.12277060
 C           -1.82130764       -1.24316554        3.14129052
 C           -1.11163118       -1.85253973        2.10454740
 C           -2.01893132        1.04690792        3.22237855
 C           -2.71209794       -0.15793197        2.80352326
 C           -0.25125514        1.94874122        1.87129424
 C           -1.61319379        1.92079359        2.22405843
 C            0.12712354        2.22929377        0.54705147
 C            2.40432861        1.58241591        1.05093978
 C            1.47439152        2.15646244        0.18279581
 C            4.21044126       -0.09109047        1.13685677
 C            3.61621129        1.09530296        0.54340880
 C            3.26047502       -2.14902318        0.11779020
 C            4.25633275       -1.08999842        0.08674972
 C            2.64751463       -2.20930562       -1.18613119
 C            0.48119536       -2.33845202       -0.15166576
 C            1.28810555       -2.45242706       -1.29272424
 C           -1.67278315       -1.80377791        0.82795942
 C           -0.90137661       -2.13826712       -0.28911795
 C           -3.26955070       -0.14410296        1.53793473
 C           -2.90838931       -1.16362030        0.65789148
 C           -2.56930410        2.16538176        1.24986453
 C           -3.53658633        1.10928511        0.99977987
 C           -0.83325944        2.61533446       -0.40350897
 C           -2.16873221        2.68456347       -0.03474422
 C           -0.50470880        2.68268333       -1.76226527
 C            1.84193983        2.40038532       -1.13726942
 C            0.81699628        2.53512858       -2.14865361
 C            3.80849711        0.98670867       -0.89399002
 C            4.13480248       -0.39539802       -1.17994396
 C            3.22832953       -1.15955513       -2.01275099
 C            2.91813935        1.63131351       -1.73183203
 C            1.12610477        1.60406136       -3.22537361
 C            2.39368090       -0.48754327       -2.90048234
 C            2.35070594        0.90817900       -2.86491972
 C            0.72993395       -2.23957872       -2.54357560
 C            1.28777555       -1.18304602       -3.37588064
 C           -1.50157659       -2.18427371       -1.55405770
 C           -0.70434955       -2.20788596       -2.69048879
 C           -3.52447133       -1.19602647       -0.58633045
 C           -2.83797973       -1.82412714       -1.69558416
 C           -3.95520387        1.20230092       -0.38338989
 C           -3.19342805        2.28954526       -0.98755464
 C           -4.15041236        0.01999623       -1.08655516
 C           -1.48253865        2.43752627       -2.72673438
 C           -2.86609907        2.23705980       -2.33463398
 C            0.07963835        0.91570166       -3.83126300
 C            0.17659667       -0.46800129       -3.98091463
 C           -0.99937295       -1.30741060       -3.79493276
 C           -1.17937509        1.50916170       -3.80509445
 C           -3.26581786       -1.15036576       -2.91349883
 C           -4.02572322        0.02773010       -2.53038450
 C           -3.41747388        1.17941832       -3.16795270
 C           -2.26110266       -0.74116934       -3.87929579
 C           -2.36030239        0.69701818       -4.04073462
