   70
C70 / DATE: 7/ 1/2024 / Origin: Program Fullerene / C70 from database
 C            1.16530487       -0.06049904        4.30282342
 C            2.48203788       -0.39660750        3.81656222
 C            2.47887827       -1.80777086        3.46801966
 C            0.34503411       -1.26144177        4.22273989
 C            1.10161502       -2.26766005        3.51689390
 C           -0.93632136       -0.87211006        3.69125045
 C            0.43267841        1.00749602        3.64700954
 C           -0.94863465        0.57850421        3.59867578
 C            0.97084967        1.64663667        2.52995314
 C            2.99940350        0.33053985        2.67923768
 C            2.31192228        1.43211340        2.17329850
 C            3.21614265       -1.96580825        2.22471044
 C            3.53923690       -0.63443234        1.73554330
 C            2.77279580       -2.91669779        1.32128079
 C            0.56471985       -2.87193609        2.38184410
 C            1.46542402       -3.51525986        1.53798781
 C           -1.50167087       -1.60144394        2.65123999
 C           -0.69238648       -2.46283835        1.88815273
 C           -2.64901764       -1.05773404        2.08548455
 C           -1.79289511        1.15619130        2.66401725
 C           -2.84784684        0.37811796        2.19820429
 C            0.09017718        2.26404479        1.62918886
 C           -1.29254145        2.16536985        1.84003664
 C            0.58693331        2.92673571        0.49921828
 C            2.77232378        1.93317924        0.96488387
 C            1.93844370        2.83098339        0.19688716
 C            3.44876714       -0.33930449        0.37495445
 C            3.39288511        1.00454463        0.02996054
 C            2.85626393       -2.62113158       -0.09535540
 C            2.92298498       -1.29192776       -0.50599189
 C            1.01766527       -4.02447613        0.26625837
 C            1.93421312       -3.52221615       -0.75042280
 C           -1.12764514       -2.88496124        0.61553026
 C           -0.32218101       -3.70947393       -0.16848975
 C           -3.05744778       -1.45110557        0.75515700
 C           -2.23943435       -2.28687397        0.01506688
 C           -3.60467174        0.82116915        1.04369084
 C           -3.67202601       -0.29636200        0.11059616
 C           -2.17064119        2.79697026        0.96457700
 C           -3.38264500        2.09945457        0.55732311
 C           -0.28782230        3.42185633       -0.47136468
 C           -1.64695972        3.49387725       -0.19378892
 C            0.13922173        3.54381643       -1.79802680
 C            2.34434799        2.68948228       -1.18779935
 C            2.98017337        1.38538894       -1.30286974
 C            1.46880091        3.09453695       -2.17962242
 C            2.26145346       -0.88201019       -1.67743042
 C            2.43048292        0.42546842       -2.14628839
 C            1.12999133       -3.01989828       -1.84040189
 C           -0.23266120       -3.45114617       -1.59225091
 C            1.34043086       -1.73010767       -2.31536014
 C           -2.35401825       -2.26768148       -1.37317403
 C           -1.25921090       -2.74834122       -2.19705204
 C           -3.47933317       -0.08343184       -1.25674470
 C           -2.91254412       -1.09341746       -2.02663978
 C           -3.57915813        2.33914303       -0.85663801
 C           -2.59485671        3.31702992       -1.28003204
 C           -3.51174924        1.21217814       -1.76909657
 C           -0.77054919        3.19899393       -2.88259041
 C           -2.09121114        2.91065272       -2.57744567
 C           -2.61113957        1.57471362       -2.85501916
 C            1.32601059        2.25323672       -3.35313986
 C            1.71223384        0.85435989       -3.25947849
 C           -0.06155000        2.31161739       -3.78069764
 C            0.37856529       -1.18804633       -3.16722452
 C           -0.92355311       -1.67997433       -3.12398613
 C           -2.03421316       -0.74221349       -3.13324402
 C           -1.78619916        0.59749306       -3.41781981
 C            0.59529531        0.05956730       -3.73004893
 C           -0.53897264        0.95087788       -3.93272352
