   70
C70 / DATE: 7/ 1/2024 / Origin: Program Fullerene / C70 from database
 C            1.23862984       -0.22720764        4.55998188
 C            2.36991593       -0.56778307        3.72950194
 C            2.09819531       -1.86537419        3.12315181
 C            0.36943225       -1.39033203        4.58986003
 C            0.74069823       -2.22627805        3.46238456
 C           -0.98962992       -0.90295718        4.66467133
 C            0.41986610        0.90759015        4.17881872
 C           -0.95536827        0.54119266        4.46744405
 C            0.69697346        1.58995561        2.99405914
 C            2.73354589        0.33094078        2.65328262
 C            1.94790801        1.44727108        2.37177196
 C            2.45976767       -1.76987005        1.72599568
 C            3.13698037       -0.50206356        1.54401584
 C            1.55459846       -2.16659728        0.75006178
 C           -0.18483088       -2.43836262        2.43999331
 C            0.24794754       -2.52745720        1.10407310
 C           -1.95861473       -1.42823977        3.72615536
 C           -1.54890868       -2.31364154        2.72815021
 C           -1.98540442        0.86775764        3.49338023
 C           -2.81131895       -0.31537845        3.35293235
 C           -0.36368334        2.16471037        2.28865978
 C           -1.62701969        1.57701133        2.35172243
 C           -0.08247015        3.01056417        1.22794743
 C            2.17608728        2.09691191        1.15535510
 C            1.28320944        3.08697256        0.75820435
 C            3.11254580        0.06636386        0.28273104
 C            2.94910618        1.44406811        0.18619444
 C            1.81352928       -1.77467234       -0.55996607
 C            2.70332799       -0.71810031       -0.79176244
 C            0.97483519       -2.21584293       -1.57731788
 C           -0.67359758       -2.81782944        0.09157034
 C           -0.31028231       -2.66254018       -1.25351339
 C           -2.47936334       -2.63711389        1.75045794
 C           -2.02081407       -2.98159748        0.41788235
 C           -3.58615345       -0.45401667        2.21345866
 C           -3.63613721       -1.76757540        1.60141109
 C           -2.36586201        1.41288048        1.17487961
 C           -3.41684199        0.50821317        1.13296441
 C           -0.93793857        2.95043044        0.05607698
 C           -1.87998749        1.93828719       -0.01991475
 C            1.23283659        3.49292710       -0.63273178
 C           -0.12888302        3.26447088       -1.09919202
 C            3.12404470        2.02192575       -1.06760824
 C            2.28223880        3.14133335       -1.46267629
 C            2.85339492       -0.20137883       -2.07748362
 C            3.23549286        1.13712453       -2.21783263
 C            1.29591319       -1.90605594       -2.90040989
 C            2.31667689       -0.90220815       -3.15608243
 C            0.22712050       -1.70578306       -3.86904786
 C           -1.31662871       -2.58178345       -2.21444585
 C           -1.07497687       -1.82714150       -3.42343221
 C           -3.04374445       -2.53712181       -0.51821825
 C           -3.87223457       -1.58107928        0.18588700
 C           -3.69510672       -0.17027119       -0.11862567
 C           -2.64679382       -2.20352736       -1.79691822
 C           -2.05438108        1.23029534       -1.21784573
 C           -1.87081433       -0.61176670       -3.30329807
 C           -2.96927117        0.16691134       -1.26136180
 C           -2.80904694       -0.82145157       -2.22534281
 C           -0.33259591        2.58167581       -2.29401159
 C           -1.22046493        1.49043547       -2.32566386
 C           -1.23069535        0.61431076       -3.42705939
 C            2.00444477        2.99976745       -2.88009039
 C            2.81504212        1.90387898       -3.37646383
 C            0.63593365        2.73322936       -3.28514376
 C            1.94164459       -0.19795515       -4.37183553
 C            0.55501154       -0.51956734       -4.63589522
 C           -0.22039180        0.68166600       -4.38207764
 C            2.05288688        1.24530457       -4.41454450
 C            0.70047449        1.79154443       -4.37727523
