   70
C70 / DATE: 7/ 1/2024 / Origin: Program Fullerene / C70 from database
 C            1.22151524        0.08603424        4.31155602
 C            2.50415725       -0.17691581        3.69859943
 C            2.56772272       -1.60070155        3.44430741
 C            0.40034943       -1.10905642        4.16415495
 C            1.21541379       -2.12336898        3.54393923
 C           -0.82948432       -0.71808870        3.51092188
 C            0.44519379        1.19487814        3.80699889
 C           -0.91451067        0.72279275        3.62341032
 C            0.98040741        2.02031001        2.82342367
 C            2.82848294        0.50289008        2.45683404
 C            1.99506346        1.51955945        1.99541150
 C            3.27197190       -1.79261178        2.18979560
 C            3.29349189       -0.50237694        1.51364500
 C            2.93676866       -2.91007773        1.44553747
 C            0.72211485       -2.83523626        2.45810383
 C            1.66914122       -3.55986314        1.74491373
 C           -1.18571196       -1.31020913        2.30362568
 C           -0.43223587       -2.37894160        1.78799217
 C           -2.08449320       -0.62959044        1.47640861
 C           -1.71146857        1.41143583        2.72156692
 C           -2.47073296        0.68140438        1.80832360
 C            0.11722821        2.97757439        2.30679823
 C           -1.30852410        2.69838645        2.37037658
 C            0.38150084        3.54666055        1.00080081
 C            1.94676745        1.77272257        0.62307480
 C            1.30011573        2.91967321        0.16588509
 C            2.88793612       -0.41388987        0.18072178
 C            2.34053893        0.77993826       -0.28384592
 C            2.98808633       -2.81562575        0.00330792
 C            2.77422591       -1.57206321       -0.59701930
 C            1.26282201       -4.26967453        0.55724401
 C            2.25325264       -3.97137583       -0.46581955
 C           -0.74684467       -2.88263830        0.51594347
 C           -0.02966054       -3.95768210       -0.00522862
 C           -2.43046993       -1.18430162        0.24024797
 C           -1.61878763       -2.17074818       -0.31368325
 C           -3.34744948       -0.54201490       -0.58472878
 C           -3.34346591        1.38339468        0.98307584
 C           -3.89625945        0.73433621       -0.18298911
 C           -1.94684466        3.37278463        1.25187787
 C           -0.89473900        3.99490938        0.46151097
 C           -3.01493616        2.75206448        0.61712831
 C           -1.03924083        4.11213365       -0.91403354
 C            1.26914274        3.19115715       -1.19725983
 C            0.13147370        3.90984220       -1.74851630
 C            2.02923260        0.90286179       -1.63507357
 C            1.62690946        2.14065343       -2.13228439
 C            2.19473834       -1.49626144       -1.87367633
 C            1.84714278       -0.24884574       -2.40355682
 C            1.54994869       -3.87196358       -1.71899804
 C            0.13262049       -4.05845421       -1.43840669
 C            1.65558403       -2.64103295       -2.47194149
 C           -1.53880892       -2.28967749       -1.71110722
 C           -0.58458995       -3.12386484       -2.27898667
 C            0.39223966       -2.52613786       -3.16867972
 C           -3.06421305       -0.46979062       -2.00424121
 C           -2.04561427       -1.26461987       -2.50855161
 C           -3.77220105        1.65024486       -1.30755173
 C           -3.17198001        2.87865671       -0.82318816
 C           -2.17295742        3.48282586       -1.57777918
 C           -3.12971498        0.93115989       -2.39240795
 C           -0.29140882        3.21923426       -2.95262815
 C            0.69295411        2.19744846       -3.24598941
 C           -1.67756110        2.82161727       -2.77781815
 C           -2.05026876        1.50593857       -3.06086946
 C            0.99644872       -0.20459047       -3.51039203
 C            0.08261927       -1.30602053       -3.73877328
 C           -1.25458297       -0.76710589       -3.54335238
 C            0.25662861        1.00833599       -3.79970666
 C           -1.16219070        0.67155846       -3.73837908
