   70
C70 / DATE: 7/ 1/2024 / Origin: Program Fullerene / C70 from database
 C            1.07476587       -0.08422621        4.88260649
 C            2.34477403       -0.32460741        4.22761967
 C            2.25081985       -1.61822383        3.56679180
 C            0.23984508       -1.25094361        4.64036684
 C            0.86285837       -2.01514692        3.57657190
 C           -1.11098061       -0.78396645        4.44903989
 C            0.29927342        1.08936555        4.52006982
 C           -1.08531518        0.67338691        4.42659876
 C            0.79703822        1.98814413        3.58334751
 C            2.83427296        0.63187164        3.24884681
 C            2.11243249        1.78524446        2.98527022
 C            2.90295433       -1.50023308        2.28889534
 C            3.36630967       -0.13029871        2.13799412
 C            2.33030473       -2.10348466        1.17925485
 C            0.19932888       -2.17655067        2.35511433
 C            0.94350310       -2.32965009        1.17102831
 C           -1.82488895       -1.20939230        3.26468151
 C           -1.18695313       -1.97654442        2.28680808
 C           -1.88351927        1.10132707        3.28766989
 C           -2.59993325       -0.06997241        2.82718969
 C           -0.08312983        2.52165122        2.55204160
 C           -1.34028131        1.96124999        2.33397613
 C            2.06301502        2.29107174        1.62434942
 C            0.74468648        2.86289347        1.41508200
 C            3.37627642        0.40414339        0.85004403
 C            2.66078886        1.58141216        0.57821387
 C            2.96661383       -1.83357020       -0.01937493
 C            3.55885061       -0.51405666       -0.17708277
 C            2.32137657       -2.17303904       -1.26405580
 C            0.26669433       -2.50024709       -0.04704847
 C            0.96076900       -2.44274970       -1.26716625
 C           -1.83162259       -2.08610445        1.05439299
 C           -1.12559726       -2.57867544       -0.04255303
 C           -3.04494601       -0.08541510        1.52185233
 C           -2.96202197       -1.29037923        0.83966653
 C           -1.87678278        1.94665167        1.03994252
 C           -2.94348288        1.08398588        0.77767871
 C            0.20694455        2.79541015        0.14459757
 C           -1.14448153        2.48451010       -0.02915573
 C            2.23515719        1.85259573       -0.73286318
 C            1.07910453        2.62408037       -0.91758294
 C            3.35233350       -0.10770647       -1.54713836
 C            2.86627628       -1.27570917       -2.26432393
 C            2.77625067        1.12794691       -1.80343285
 C            2.15722388       -1.08071421       -3.43657949
 C            0.26428243       -2.35384149       -2.47760851
 C            0.82353547       -1.64998353       -3.54800192
 C           -1.80122782       -2.79076488       -1.23931632
 C           -1.10905365       -2.55675247       -2.48991306
 C           -3.65973980       -1.39253862       -0.35426933
 C           -3.14844191       -2.26959330       -1.38566671
 C           -3.53840234        1.09622640       -0.47690280
 C           -4.08056288       -0.15529115       -0.98945241
 C           -1.67217368        2.44976848       -1.32951273
 C           -2.86075017        1.76388928       -1.57072273
 C            0.59162737        2.87105483       -2.18769101
 C           -0.82926577        2.68990460       -2.41774370
 C            2.35703614        1.38738448       -3.10648302
 C            2.11028530        0.26102883       -3.99255673
 C            1.30471985        2.35339212       -3.33340637
 C           -0.01024633       -0.69905816       -4.26750392
 C           -0.96975304        1.86005777       -3.60408526
 C            0.80592168        0.44880227       -4.60493150
 C            0.32941444        1.75802271       -4.23458093
 C           -1.93045645       -1.65858731       -3.28677019
 C           -3.22625795       -1.56058979       -2.65411564
 C           -3.76199547       -0.24478180       -2.40281642
 C           -2.94884038        0.90363279       -2.74350010
 C           -1.32867322       -0.53276446       -3.84782399
 C           -1.81788801        0.75604741       -3.54387050
