   70
C70 / DATE: 7/ 1/2024 / Origin: Program Fullerene / C70 from database
 C            1.36549287        0.09540358        5.02824282
 C            0.57012146       -1.06592516        4.66464923
 C            1.42412263       -1.96793162        3.93228433
 C            2.59429109        0.04187500        4.25558291
 C            2.69077636       -1.28524340        3.69637036
 C            2.60097251        1.17694020        3.34968469
 C            0.63681658        1.27867219        4.60865740
 C            1.49645459        2.04417597        3.72951593
 C           -0.63651410       -0.59334560        4.02000047
 C           -0.65414704        0.85533654        4.09946932
 C           -1.08221995       -1.18449582        2.84046475
 C            0.96169788       -2.47628476        2.65226638
 C           -0.28464632       -2.10590382        2.14836964
 C            2.98477423       -1.41547990        2.28605511
 C            2.09463080       -2.42671614        1.75789866
 C            2.87899214        0.99076952        1.99258481
 C            3.21575702       -0.28542383        1.50207140
 C            2.53425563        2.01200000        1.09907884
 C            0.89120684        2.81042536        2.74546787
 C            1.52123641        2.90296500        1.44095724
 C           -1.21462314        1.55426293        3.03456520
 C           -0.53905166        2.65903516        2.51372090
 C           -2.05747892       -0.50779141        2.12583091
 C           -2.11396180        0.88636650        2.20756591
 C           -2.60153139       -1.12313668        1.00893305
 C           -0.52976689       -2.31705177        0.78321106
 C           -1.76161695       -1.93876814        0.24161397
 C            1.85169805       -2.39371263        0.39789021
 C            0.54863868       -2.57897392       -0.06999704
 C            3.27488678       -0.48725884        0.12156543
 C            2.73697996       -1.67295413       -0.39284668
 C            2.85623128        1.88143970       -0.24454106
 C            3.39380170        0.62232917       -0.70567290
 C            1.89702339        2.33518831       -1.24336310
 C            0.48039134        3.19359229        0.46526939
 C           -0.79928114        3.06223169        1.13804861
 C            0.62596674        2.71488741       -0.83587545
 C           -2.67046960        1.58189882        1.13968931
 C           -1.85003574        2.47547778        0.45105139
 C           -3.68556041       -0.49060357        0.41694886
 C           -3.69961296        0.96108749        0.44471594
 C           -4.12609415       -0.92163527       -0.88814963
 C           -1.99226736       -2.10608770       -1.13141225
 C           -3.21242138       -1.70853778       -1.68835785
 C            0.35274599       -2.62911954       -1.45245781
 C           -0.92771855       -2.41877879       -1.98387223
 C            2.66185774       -1.86863541       -1.76332056
 C            1.48493726       -2.54787801       -2.27244904
 C            3.07264779        0.50548441       -2.11552793
 C            2.05443678        1.50486524       -2.41589423
 C            2.94225129       -0.76001649       -2.66069299
 C            0.93777347        1.13758936       -3.16013969
 C           -0.49732612        2.24294777       -1.52857973
 C           -1.75660357        2.37656983       -0.93707983
 C           -0.34677493        1.48819824       -2.70810021
 C           -3.98140006        1.41388573       -0.90118208
 C           -4.46858723        0.27054981       -1.64681385
 C           -2.89238669        2.01741248       -1.64529497
 C           -3.23206169       -1.14003869       -3.02795040
 C           -1.48173710        1.01234911       -3.38904902
 C           -3.72784422        0.21462344       -2.88876285
 C           -2.75148904        1.29455903       -2.89347978
 C           -1.10145874       -2.24283169       -3.36035025
 C           -2.11080194       -1.31225346       -3.81300353
 C           -1.37014694       -0.12061451       -4.19305214
 C            1.36222166       -2.16803981       -3.66193068
 C            2.08597374       -0.91797653       -3.82115367
 C            1.09700839        0.10928979       -4.08794006
 C            0.04237310       -1.97153878       -4.20560307
 C           -0.06380650       -0.57370121       -4.60639572
