   70
C70 / DATE: 7/ 1/2024 / Origin: Program Fullerene / C70 from database
 C            1.39241441       -0.20217744        4.02053398
 C            2.47321367       -0.39283930        3.07046665
 C            2.31645347       -1.71466463        2.48061021
 C            0.53669941       -1.37225618        3.96834584
 C            1.17394190       -2.35621394        3.11222884
 C           -0.80814813       -0.93094818        3.63799958
 C            0.55145009        0.96796398        3.88723856
 C           -0.79263196        0.51629830        3.55544954
 C            1.06396300        2.06887963        3.22327645
 C            2.86420392        0.66845254        2.25553014
 C            2.28183694        1.92651074        2.43132675
 C            3.50865369        0.37892517        1.05559276
 C            2.54925812       -1.87506180        1.11485625
 C            3.38037190       -0.95583873        0.48889637
 C            1.68826170       -2.66734569        0.34680773
 C            0.36342595       -3.17934033        2.35003624
 C            0.76024170       -3.48649940        0.99009567
 C           -1.53142416       -1.65007924        2.69726835
 C           -1.06421564       -2.90840969        2.31323374
 C           -2.45788426       -0.98723948        1.89126932
 C           -1.49392942        1.14960615        2.53152007
 C           -2.38213439        0.40970779        1.73558369
 C            0.15652080        2.90959768        2.46933810
 C           -1.11733584        2.44014945        2.15184275
 C            2.17937821        2.84115648        1.30020341
 C            0.94354030        3.58659913        1.45206429
 C            3.45373974        1.33097405       -0.04237604
 C            2.58825441        2.41825842        0.03813709
 C            3.35336407       -0.82734462       -0.95354632
 C            3.56446750        0.57755532       -1.27610063
 C            1.63272051       -2.51536434       -1.04668924
 C            2.44417722       -1.57695875       -1.69142239
 C            0.63105958       -3.15825351       -1.77635513
 C           -0.44035431       -3.90861481        0.28881387
 C           -1.58462577       -3.53547855        1.11030630
 C           -0.49830838       -3.75846458       -1.08714235
 C           -3.24750686       -1.75100803        1.03416090
 C           -2.71900175       -3.00081692        0.51655413
 C           -3.96150963       -1.10637875       -0.04212098
 C           -3.13092541        1.05828783        0.73825308
 C           -3.75075246        0.30434116       -0.25047987
 C           -1.84250474        3.10213279        1.17279802
 C           -2.80313390        2.36080816        0.38486715
 C            0.30317134        4.06901355        0.32402435
 C           -1.14729595        4.00914890        0.27384597
 C            1.93973850        2.89323163       -1.11125608
 C            0.80622709        3.69824429       -0.98785909
 C            3.01104866        1.09844797       -2.43268936
 C            2.13848816        2.25579065       -2.33733708
 C            2.13574233       -1.17555946       -2.99132090
 C            2.43149512        0.18555460       -3.40112126
 C            0.11113996       -2.52826789       -2.97648381
 C            0.83839001       -1.50354901       -3.55193407
 C           -1.71340985       -3.25722594       -1.71359971
 C           -2.82257690       -2.95507763       -0.93406580
 C           -3.61955130       -1.79118913       -1.27827096
 C           -1.31138504       -2.33416980       -2.76389152
 C           -3.32560897        0.50129013       -1.62823831
 C           -3.06889858       -0.80401205       -2.19381753
 C           -1.84301809       -1.04372657       -2.79322006
 C           -2.53103059        2.63382981       -1.01815170
 C           -1.53708807        3.67520024       -1.08566940
 C           -0.33786889        3.42038410       -1.84329870
 C           -2.45825512        1.55554232       -1.89439559
 C            0.98181887        2.01121671       -3.18593567
 C            1.19167433        0.77116771       -3.88917781
 C            0.16649561       -0.24262947       -3.81024835
 C           -1.02585691        0.03246145       -3.14386184
 C           -0.27722054        2.31683900       -2.68607093
 C           -1.26165034        1.30943601       -2.59522770
