   70
C70 / DATE: 7/ 1/2024 / Origin: Program Fullerene / C70 from database
 C            1.24298856        0.00738098        5.06002615
 C            2.48027090        0.03399057        4.29961649
 C            2.54769602       -1.19688936        3.53204592
 C            0.45185000       -1.11568051        4.57998636
 C            1.25356763       -1.84565070        3.61896819
 C           -0.83766933       -0.60860239        4.15351644
 C            0.39112432        1.17987153        5.06002615
 C           -0.92144589        0.77449912        4.57998636
 C            0.79877281        2.34837414        4.29961649
 C            2.74444137        1.13530460        3.38563777
 C            1.92781786        2.25929043        3.38563777
 C            3.05950429       -0.87772881        2.20743719
 C            3.16853021        0.56617701        2.11807679
 C            2.53621879       -1.56138962        1.11080430
 C            0.66875331       -2.25759397        2.43059915
 C            1.50545627       -2.47246801        1.34277988
 C           -1.30428108       -0.94761567        2.88604501
 C           -0.67903197       -1.97511120        2.18230734
 C           -2.08827480       -0.03545486        2.18230734
 C           -1.36794442        1.76255110        3.61896819
 C           -0.35102806        2.79286205        3.53204592
 C           -1.94044332        1.33365710        2.43059915
 C            1.51759602        2.83849299        2.11807679
 C            0.11066911        3.18099461        2.20743719
 C            2.80116834        1.16922658        0.92181811
 C            1.97760918        2.30275852        0.92181811
 C            2.63931058       -0.97289323       -0.15595276
 C            2.87694248        0.40388553       -0.24040344
 C            2.15071946       -1.67283202       -1.26762334
 C            0.98054539       -3.16806799        0.27080897
 C            1.47822217       -2.87373282       -1.05541319
 C           -1.22630991       -2.38905571        0.96610374
 C           -0.46359974       -3.24369595        0.16946708
 C           -2.65107761       -0.42803121        0.96610374
 C           -2.25527649       -1.63855428        0.38440985
 C           -3.22819837        0.56144761        0.16946708
 C           -1.88624524        2.19580863        1.34277988
 C           -0.70123507        2.89458333        1.11080430
 C           -2.71000651        1.91154093        0.27080897
 C            1.27314208        2.61132740       -0.24040344
 C           -0.10968462        2.81077407       -0.15595276
 C            2.68961602        1.05800957       -1.44777456
 C            1.83736395        2.23103390       -1.44777456
 C            2.07302356       -1.05499308       -2.52070445
 C            2.38851792        0.29352484       -2.63948665
 C            1.38012873       -1.67971136       -3.55930055
 C            0.45131427       -3.29826814       -1.98821421
 C           -0.78891693       -3.42586711       -1.23412573
 C            0.43392658       -2.73828287       -3.25485527
 C           -2.73676294       -1.98837466       -0.87989964
 C           -1.95932211       -2.87414680       -1.73059324
 C           -3.50198198        0.30834657       -1.23412573
 C           -3.33893987       -0.97526585       -1.73059324
 C           -2.27628655        2.29390511       -1.05541319
 C           -0.92634893        2.56238928       -1.26762334
 C           -2.99737562        1.44844629       -1.98821421
 C            1.01725134        2.18091137       -2.63948665
 C            1.58293304        1.15006817       -3.49574118
 C           -0.36275853        2.29757335       -2.52070445
 C            0.79813428       -0.87076002       -4.61924139
 C            0.79068035        0.57446290       -4.47803212
 C           -0.83560792       -2.37952516       -3.86528607
 C           -1.98928564       -2.34595866       -3.08604564
 C           -2.84586234       -1.16698198       -3.08604564
 C           -0.57411043       -1.31339401       -4.81661208
 C           -2.47017108        1.25886464       -3.25485527
 C           -1.17101720        1.83163977       -3.55930055
 C           -0.58150494        1.02815045       -4.61924139
 C           -2.52127996       -0.05939665       -3.86528607
 C           -1.42652181       -0.14015040       -4.81661208
