   70
C70 / DATE: 7/ 1/2024 / Origin: Program Fullerene / C70 from database
 C            1.33374537       -0.05955104        4.97424043
 C            0.57887634       -1.22923261        4.55417065
 C            1.48727694       -2.10075029        3.85439879
 C            2.61287393       -0.09022191        4.28596855
 C            2.74094560       -1.38117004        3.65691988
 C            2.69252414        1.08735630        3.44856781
 C            0.61559781        1.11657604        4.51636404
 C            1.49522928        1.88422673        3.66580213
 C           -0.60672657       -0.76996527        3.85642213
 C           -0.63599133        0.67776202        3.95415589
 C           -0.99203980       -1.35522319        2.64243398
 C            1.08287577       -2.61540486        2.56425077
 C           -0.18689392       -2.33772589        2.04459597
 C            3.05293423       -1.43329868        2.23953690
 C            2.22128920       -2.47430793        1.68025960
 C            3.18202516        0.99330957        2.14822549
 C            3.22234140       -0.26009506        1.50491572
 C            3.04402444        2.14104992        1.37774705
 C            0.95525564        2.55672131        2.57030052
 C            1.84589827        2.94351230        1.57160135
 C           -1.15008431        1.36358154        2.87117718
 C           -0.39465701        2.36144275        2.23524670
 C           -1.90643411       -0.65130483        1.84900517
 C           -2.10895227        0.70381774        2.12337587
 C           -2.29107304       -1.16901257        0.60830449
 C           -0.39140406       -2.65175682        0.69751300
 C           -1.54867934       -2.21351090        0.04812753
 C            1.95040525       -2.45510985        0.32721178
 C            0.73058329       -2.97795503       -0.06630074
 C            3.10757565       -0.34215580        0.10845339
 C            2.52425185       -1.47162685       -0.48117951
 C            3.31989940        2.08229378       -0.03851394
 C            3.32882814        0.78539108       -0.67304389
 C            1.34244806        3.31110492        0.26144230
 C            2.32889203        2.90071387       -0.71800291
 C           -0.88734276        2.88224705        1.03141392
 C            0.00001124        3.11300559       -0.02451012
 C           -2.85804852        1.47329615        1.25727238
 C           -2.23498364        2.67783246        0.74138990
 C           -3.24185703       -0.48403037       -0.16004197
 C           -3.55893588        0.83072965        0.16965591
 C           -3.56093152       -0.94051951       -1.43792662
 C           -1.77479149       -2.60803328       -1.27505336
 C           -2.87072977       -2.09936171       -1.96817271
 C            0.57700861       -3.25462219       -1.40939630
 C           -0.75577162       -3.26101020       -1.96912694
 C            2.13847766       -1.43067812       -1.82839212
 C            1.42850871       -2.52362529       -2.33061837
 C            2.61644289        0.91871680       -1.92889755
 C            1.87794072        2.16731002       -1.88437958
 C            1.97648420       -0.19088046       -2.45445346
 C           -0.37569334        2.80163464       -1.33794161
 C            0.51868813        2.13911408       -2.18162665
 C           -2.69926367        2.85834520       -0.61963679
 C           -3.66845496        1.81172913       -0.89175688
 C           -1.71852368        2.83683992       -1.68293859
 C           -3.70969912        0.02617769       -2.52498195
 C           -3.46532946        1.36204500       -2.25008443
 C           -2.20745229        1.93785054       -2.71479507
 C           -2.80678717       -1.93467083       -3.41303846
 C           -3.07174585       -0.53838331       -3.69457059
 C           -0.58896731       -3.04760524       -3.39584207
 C            0.68933412       -2.37890168       -3.57332416
 C           -1.58380753       -2.27729706       -4.10808442
 C            0.86372141        0.01968071       -3.26825913
 C            0.04469066        1.13190099       -3.02736309
 C           -1.30647789        1.12546193       -3.40428372
 C           -1.82351699        0.05653455       -4.13540008
 C            0.40782107       -1.03929988       -4.04032435
 C           -0.95367941       -1.03101342       -4.52820506
