   70
C70 / DATE: 7/ 1/2024 / Origin: Program Fullerene / C70 from database
 C            1.36160945        0.01715821        5.20482350
 C            0.56494033       -1.18042542        5.02091975
 C            1.47576101       -2.23582965        4.63002454
 C            2.64481772       -0.21210186        4.55811862
 C            2.71284829       -1.60778726        4.18757799
 C            2.78413428        0.77610783        3.51188266
 C            0.70063375        1.10050304        4.49731601
 C            1.67306896        1.70726499        3.61949183
 C           -0.54920522       -0.84628731        4.14276801
 C           -0.50477362        0.58296107        3.89215302
 C           -0.89119968       -1.69449196        3.08784006
 C            1.05864080       -3.13632597        3.58164435
 C           -0.21016532       -2.90152678        2.91551695
 C            2.89949518       -1.94831772        2.78429748
 C            2.08147721       -3.11104170        2.54423724
 C            3.17205623        0.38334507        2.23232188
 C            2.92699754       -0.93543678        1.82265016
 C            3.16087871        1.38405260        1.27615917
 C            1.23017359        2.28568542        2.43646803
 C            2.19701217        2.45693616        1.45830901
 C           -0.84046719        1.03084746        2.62240445
 C           -0.08617679        2.04537598        2.01656723
 C           -1.59181320       -1.16664568        1.99569273
 C           -1.64048259        0.21730027        1.82195560
 C           -1.82301869       -1.98475480        0.89073309
 C           -0.01306903       -3.38438040        1.57048411
 C            1.39537710       -3.21401531        1.27582165
 C           -0.88417097       -2.97114918        0.58884333
 C            2.47373856       -1.19831958        0.51052761
 C            1.72813344       -2.35217541        0.22981698
 C            3.11744769        1.02473008       -0.12194108
 C            2.61038696       -0.22032756       -0.47820737
 C            1.79532921        2.90271471        0.14536461
 C            2.63474236        2.20550731       -0.80892257
 C           -0.49227520        2.48867128        0.75496519
 C            0.44289144        3.03020807       -0.13761547
 C           -2.13094856        0.74279676        0.62893941
 C           -1.70170990        2.01419056        0.25198237
 C           -2.57867174       -1.49337046       -0.17729671
 C           -2.72139356       -0.10429925       -0.31802522
 C           -2.57816908       -2.28161318       -1.32492708
 C           -0.37880275       -2.96564944       -0.69587444
 C            0.86397415       -2.35349204       -0.87345407
 C           -1.31809298       -2.88850807       -1.69859491
 C            1.93424943       -0.35199846       -1.69793874
 C            1.00814199       -1.38296496       -1.87365624
 C            2.15397181        2.05988435       -2.09315717
 C            1.95596635        0.71214259       -2.59772788
 C            0.07456351        3.21066184       -1.47112051
 C            0.97046387        2.81250199       -2.46805049
 C           -2.20848911        2.59090176       -0.90020811
 C           -1.28106130        3.28880750       -1.77092836
 C           -3.21477768        0.44198845       -1.51694243
 C           -3.09998585        1.81519614       -1.73780740
 C           -3.17815028       -1.78105889       -2.53694435
 C           -3.57202559       -0.39441940       -2.57867585
 C           -0.94263549       -2.28291669       -2.94984011
 C            0.08716487       -1.34398724       -2.93741498
 C           -2.20046009       -1.97692922       -3.60007936
 C            0.94715645        0.79836927       -3.63727983
 C            0.47129459        2.17722686       -3.67226597
 C            0.03759797       -0.23756396       -3.80181393
 C           -1.72428028        3.09264911       -3.14093963
 C           -2.95918877        2.32932723       -3.09248769
 C           -0.83001349        2.43481002       -4.07722478
 C           -3.32898890        0.02856694       -3.94802224
 C           -2.26848252       -0.82411997       -4.46133558
 C           -1.09153072        0.00630517       -4.59143956
 C           -2.93635732        1.39855903       -4.19999861
 C           -1.57610351        1.36997647       -4.72045989
