   70
C70 / DATE: 7/ 1/2024 / Origin: Program Fullerene / C70 from database
 C            1.00175100       -0.01878038        4.63516299
 C            2.27066195       -0.40563988        4.06407033
 C            2.21773982       -1.83553527        3.80588993
 C            0.16680526       -1.21101985        4.70053738
 C            0.82965090       -2.23927207        3.92749848
 C           -1.17262078       -0.82422434        4.32850553
 C            0.22655112        1.00953892        3.97079507
 C           -1.15689108        0.61085779        4.09662813
 C            0.65308821        1.53312122        2.74832958
 C            2.70263144        0.23435757        2.84013053
 C            1.92696898        1.23274998        2.24610441
 C            2.89835507       -2.08639139        2.54657462
 C            3.26259225       -0.79515057        1.98645925
 C            2.37604546       -3.05284661        1.70171086
 C            0.20548879       -2.80307526        2.81349991
 C            1.01720438       -3.51879806        1.93691455
 C           -1.77436914       -1.43608203        3.15958140
 C           -1.03316147       -2.30559081        2.36374567
 C           -2.03604321        0.87078888        2.98007140
 C           -2.55184891       -0.40004441        2.51216176
 C           -0.28944873        2.12928147        1.90272997
 C           -1.64530626        1.78212512        2.01062698
 C            0.15092698        2.79214912        0.75397229
 C            2.22654383        1.58089647        0.92745117
 C            1.43830566        2.53480848        0.27801910
 C            3.19790154       -0.58626932        0.61524617
 C            3.04095416        0.72138151        0.17778977
 C            2.52127820       -2.87991505        0.26882923
 C            2.81214559       -1.62087639       -0.24482622
 C            0.48391060       -3.96075721        0.66820324
 C            1.47061815       -3.65252283       -0.35754407
 C           -1.43956475       -2.49647253        1.03586564
 C           -0.78119722       -3.41885915        0.23069227
 C           -2.82100015       -0.50398982        1.15439395
 C           -2.33790226       -1.60326234        0.43671326
 C           -2.43463383        1.84543459        0.86814624
 C           -3.08518474        0.67519575        0.45942443
 C           -0.80163106        3.36491869       -0.08985171
 C           -2.15470288        2.84805490       -0.04902608
 C           -0.47709533        3.65738146       -1.47622353
 C            1.82361279        2.99271395       -0.98153504
 C            0.81932332        3.45401222       -1.92445229
 C            3.22559717        0.95762411       -1.17369094
 C            2.79217525        2.22018999       -1.72884949
 C            2.40191893       -1.30201993       -1.54558849
 C            2.84131500       -0.09991300       -2.08999203
 C            0.76549604       -3.07086369       -1.48383583
 C           -0.65280708       -3.13718395       -1.18451055
 C            1.26026572       -1.91181436       -2.08054670
 C           -2.48354556       -1.61266934       -0.95656949
 C           -1.47212687       -2.17119315       -1.73958907
 C           -3.58272414        0.56343867       -0.83195726
 C           -3.33143043       -0.67472278       -1.54519985
 C           -2.65046873        2.75364314       -1.40958759
 C           -1.60522077        3.24514116       -2.29950857
 C           -3.42887248        1.66205114       -1.76938384
 C           -1.37722656        2.63126301       -3.52783071
 C            1.05139120        2.77912985       -3.19610884
 C            2.23285055        1.95117267       -3.04046606
 C            2.09306266        0.51002387       -3.17241841
 C           -0.02504876        2.25417602       -3.89923658
 C            0.38910579       -1.16472859       -2.88252976
 C           -0.98306920       -1.44499950       -2.82076859
 C            0.85372207       -0.01052578       -3.52651542
 C           -0.04079809        0.82766647       -4.18990330
 C           -3.14387867       -0.34365688       -2.94909096
 C           -3.30765612        1.09314051       -3.09896639
 C           -2.25721117        1.56752200       -3.97978327
 C           -1.88959614       -0.71316074       -3.57496384
 C           -1.42367323        0.42687657       -4.33162472
