   70
C70 / DATE: 7/ 1/2024 / Origin: Program Fullerene / C70 from database
 C            1.63621200       -0.02346352        4.57541649
 C            0.81956125       -1.20406160        4.36433927
 C            1.38894492       -1.95963254        3.26213208
 C            2.68385269       -0.02561561        3.57017152
 C            2.55728600       -1.23372118        2.79256396
 C            2.62871049        1.23269417        2.86560121
 C            0.79702908        1.13736494        4.33366620
 C            1.45103557        1.95217025        3.33434222
 C           -0.55715542       -0.77074580        4.25641781
 C           -0.54456264        0.67113226        4.05685068
 C           -1.41062043       -1.52884056        3.47588029
 C            0.52987830       -2.53061729        2.31837454
 C           -0.84499833       -2.52085529        2.56677690
 C            0.99014968       -2.71303165        1.00713008
 C            2.76755213       -1.17331517        1.42604504
 C            2.24864434       -2.20562081        0.66642501
 C            2.91042254        1.25738608        1.50143227
 C            3.03788530        0.05079535        0.79426011
 C            2.52259712        2.39667385        0.81247808
 C            0.67495460        2.61378028        2.38968040
 C            1.34523758        3.11121793        1.27696069
 C           -1.22949989        1.21264148        2.96913162
 C           -0.69052968        2.31050446        2.28477735
 C           -2.45621076       -0.84846923        2.74142257
 C           -2.29499542        0.49632172        2.41185376
 C           -1.77427187       -2.65914998        1.45625909
 C           -2.89713257       -1.77392329        1.71974650
 C            0.08045819       -3.05062083       -0.00430157
 C           -1.26924818       -2.76008514        0.16524871
 C            0.54426024       -3.31560997       -1.28686968
 C            2.72793617       -2.34732297       -0.62215569
 C            1.94688373       -3.10353568       -1.57484432
 C            3.14972285        0.06709358       -0.60766365
 C            3.22786515       -1.15576133       -1.28325390
 C            2.49774444        2.38655149       -0.63256577
 C            2.86826115        1.23995490       -1.32297129
 C            0.60111165        3.56176194        0.11534280
 C            1.31251856        3.11047658       -1.06671725
 C           -1.44667490        2.91807617        1.28634885
 C           -0.77955708        3.50763084        0.13557490
 C           -2.99611254        1.01318588        1.31927315
 C           -2.64884431        2.26104144        0.80689973
 C           -3.61288503       -1.27123636        0.65026158
 C           -3.81204498        0.16565271        0.56806680
 C           -2.01634041       -2.27778044       -0.91534037
 C           -3.27176889       -1.72234891       -0.68535327
 C           -0.22448898       -2.82456481       -2.41815956
 C           -1.41492856       -2.14227229       -2.17335001
 C            2.05250447       -2.44354531       -2.86192576
 C            2.86302689       -1.24776129       -2.68726905
 C            0.71239750       -2.32124428       -3.41064029
 C            2.51051546        1.17223499       -2.66896636
 C            2.51773291       -0.09591099       -3.37351639
 C            0.61567384        2.63803781       -2.17567712
 C            1.35333368        1.93223440       -3.11986582
 C           -1.48394810        3.07782944       -1.05882611
 C           -2.74868511        2.51616622       -0.62504321
 C           -0.77933703        2.47757004       -2.10462711
 C           -4.07203341        0.47358448       -0.82703021
 C           -3.76485679       -0.71977836       -1.60216801
 C           -3.38778984        1.59706597       -1.43906002
 C           -1.83160994       -1.12920514       -3.05159900
 C           -1.45468413        1.61065667       -2.98172084
 C           -2.91545011       -0.32901628       -2.70440981
 C           -2.70587853        1.10834085       -2.62481387
 C            0.38510680       -1.18550196       -4.13412412
 C            1.36401172       -0.11660207       -4.25971544
 C            0.66581524        1.15115556       -4.11855315
 C           -0.91414031       -0.57083040       -3.93683458
 C           -0.73555011        0.87261362       -3.91721963
