   70
C70 / DATE: 7/ 1/2024 / Origin: Program Fullerene / C70 from database
 C            1.55912689       -0.02772937        4.59663956
 C            0.75857724       -1.23362149        4.50651931
 C            1.25923980       -2.03109503        3.40060158
 C            2.58780585       -0.10872999        3.57842564
 C            2.44853020       -1.37056687        2.88622470
 C            2.51206993        1.09419229        2.78567503
 C            0.69773767        1.09548106        4.26166361
 C            1.26591286        1.76369547        3.11514494
 C           -0.62757058       -0.82684465        4.47733693
 C           -0.65131770        0.59749261        4.15629506
 C           -1.52618410       -1.65472973        3.82591526
 C            0.34736268       -2.58385788        2.49723484
 C           -1.01690946       -2.57664974        2.81265948
 C            0.74344420       -2.78065163        1.16776424
 C            2.66664946       -1.39401072        1.51651049
 C            2.02569094       -2.37644348        0.77933582
 C            2.84243350        1.01763181        1.44421203
 C            3.09047204       -0.23119482        0.85879617
 C            2.36037955        2.02466650        0.63062658
 C            0.43826189        2.15491685        2.06240025
 C            1.05603134        2.48242763        0.85609359
 C           -1.46512050        1.04069380        3.11416346
 C           -0.91943086        1.79253462        2.05519482
 C           -2.72172248       -1.04271551        3.28594776
 C           -2.65856858        0.36018033        2.91808247
 C           -1.99362765       -2.63226882        1.73570170
 C           -3.10421323       -1.78867907        2.10207819
 C           -0.23218376       -3.02057197        0.19273656
 C           -1.53597277       -2.60999776        0.42627895
 C            0.14517144       -3.29151150       -1.11204464
 C            2.44868412       -2.58136486       -0.52347228
 C            1.54880111       -3.22538554       -1.45606932
 C            3.32937830       -0.28606422       -0.52555822
 C            3.10430001       -1.48211108       -1.21136529
 C            2.92493467        2.12948017       -0.62523334
 C            3.38051045        0.90509752       -1.25641539
 C            2.27385309        2.94733840       -1.62164627
 C            0.27674648        2.93045365       -0.20818901
 C            0.89713987        3.32839610       -1.39345040
 C           -1.69343599        2.06117137        0.90975867
 C           -1.10390796        2.72462776       -0.18271210
 C           -3.35368971        0.49775038        1.66385859
 C           -3.57567260       -0.83659176        1.12754954
 C           -2.96847876        1.48318270        0.77138586
 C           -2.21653876       -1.87972741       -0.56431836
 C           -3.28839715       -1.03985936       -0.21724567
 C           -0.61209048       -2.67389361       -2.18564202
 C           -1.68122701       -1.83505881       -1.86258057
 C            1.66740714       -2.55167994       -2.73533824
 C            2.58949334       -1.44207294       -2.57361400
 C            0.33014627       -2.28168366       -3.22324602
 C            2.90260186        0.92340170       -2.63114689
 C            2.33721354        2.23718534       -2.88780982
 C            2.28633515       -0.21160856       -3.14763446
 C            0.20066074        3.17043497       -2.65623771
 C            1.03297343        2.33526607       -3.51167459
 C           -1.84342107        2.96090512       -1.34432250
 C           -1.17026979        2.97802000       -2.63177882
 C           -3.51540554        1.35965668       -0.49798324
 C           -3.60639713        0.01997722       -1.05633958
 C           -3.08386790        2.25295492       -1.54043287
 C           -2.02943204       -0.79737056       -2.73494865
 C           -1.76496786        1.92893723       -3.44898168
 C           -3.05925235        0.06813498       -2.39299717
 C           -2.95679377        1.47153866       -2.75982984
 C            0.10885486       -1.10649298       -3.91954724
 C            1.14957546       -0.08562290       -3.95406700
 C            0.48986687        1.20595027       -4.10954473
 C           -1.16252966       -0.42796024       -3.76365341
 C           -0.94577705        0.98264430       -4.05174033
