   70
C70 / DATE: 7/ 1/2024 / Origin: Program Fullerene / C70 from database
 C            1.30688957       -0.11331536        4.72320268
 C            2.58392047       -0.31409747        4.06598111
 C            2.56167450       -1.62395478        3.43758949
 C            0.47519626       -1.27251122        4.45016430
 C            1.27610424       -2.23885283        3.71859855
 C           -0.77122990       -0.80649496        3.86097670
 C            0.53980786        1.07248378        4.39429212
 C           -0.75509033        0.64316184        3.87746344
 C            1.18473460        2.14013857        3.78354182
 C            3.01729065        0.65293926        3.07117487
 C            2.40925717        1.89996383        3.02377093
 C            2.97448976       -1.46717043        2.05172740
 C            3.25291956       -0.06041372        1.82658325
 C            2.30808999       -2.18300950        1.06066937
 C            0.66414801       -2.96753716        2.71048112
 C            1.34686275       -3.11589404        1.43545436
 C           -1.27825155       -1.46708205        2.74742637
 C           -0.72822414       -2.69373384        2.39443958
 C           -2.00213977       -0.75337158        1.79092539
 C           -1.34228484        1.34126951        2.82484445
 C           -2.05193685        0.64644592        1.84383781
 C            0.38034146        3.07499827        3.02333752
 C           -0.92438250        2.64258136        2.55699466
 C            2.26015637        2.55497167        1.73657364
 C            1.14656050        3.46829053        1.85403060
 C            2.86800899        0.50501446        0.61462911
 C            2.38907303        1.81433226        0.56343521
 C            2.26728061       -1.67020510       -0.23578215
 C            2.62371703       -0.33618074       -0.46455294
 C            1.59461597       -2.38326147       -1.23198968
 C            0.33585920       -3.50559906        0.47050210
 C           -0.96303415       -3.21298431        1.06214187
 C            0.52500150       -3.20999435       -0.87467158
 C           -2.51723429       -1.42459315        0.67542536
 C           -1.93397665       -2.62677493        0.25951207
 C           -3.38411032       -0.74600712       -0.17909343
 C           -2.57755859        1.35557664        0.76366694
 C           -3.44221360        0.70242330       -0.10578824
 C           -1.09083476        3.17513694        1.21693033
 C            0.22452632        3.55851676        0.74297463
 C           -1.92181224        2.50774363        0.32609839
 C            1.73805643        2.24693477       -0.59674042
 C            0.61272231        3.07885363       -0.49843704
 C            2.40516483        0.22576274       -1.71861056
 C            1.95152998        1.55046566       -1.78995704
 C            1.73215603       -1.96618839       -2.55388890
 C            2.26455744       -0.63975608       -2.80091874
 C            0.64242375       -2.18054580       -3.49373243
 C           -0.60288454       -3.25231899       -1.68955516
 C           -1.89104798       -2.93316850       -1.09780876
 C           -0.56092625       -2.67413346       -3.01880706
 C           -3.46154539       -1.12602558       -1.58166308
 C           -2.63959930       -2.13656687       -2.05074828
 C           -1.78074125       -1.89763916       -3.20536227
 C           -3.59220521        1.21354146       -1.45696392
 C           -3.60043396        0.08223411       -2.36883583
 C           -1.68178559        2.67014277       -1.04100910
 C           -0.38063085        2.96420052       -1.46522227
 C           -2.61523612        2.16963745       -1.94241063
 C            1.29752312        2.01287678       -2.93255552
 C            0.01825095        2.67128875       -2.76309515
 C            1.71065199       -0.16728027       -4.05307270
 C            0.62030997       -1.05921874       -4.41327078
 C            1.21526070        1.18737290       -4.11986293
 C           -1.72276698       -0.63233061       -3.79674193
 C           -2.63688740        0.35286215       -3.42183583
 C           -2.18386926        1.72629539       -3.25566925
 C           -0.91964582        2.07773531       -3.70146198
 C           -0.58871272       -0.26096879       -4.51777809
 C           -0.18190081        1.13298751       -4.52150389
