   70
C70 / DATE: 7/ 1/2024 / Origin: Program Fullerene / C70 from database
 C            1.60245444        0.15638224        4.90201995
 C            0.82227459       -1.06399893        5.00731082
 C            1.54236089       -2.11111476        4.30788800
 C            2.68408378       -0.08996142        3.96339624
 C            2.69101429       -1.50139832        3.65599591
 C            2.54355404        0.84976943        2.86711331
 C            0.74729358        1.18064044        4.32799240
 C            1.40106781        1.69810421        3.14516665
 C           -0.53782981       -0.76141502        4.59863067
 C           -0.58301890        0.63076182        4.17556555
 C           -1.24839900       -1.70213663        3.86307600
 C            0.83609145       -2.90292772        3.31330509
 C           -0.54514401       -2.80942443        3.22138243
 C            2.66399273       -1.89592262        2.26300491
 C            1.62085693       -2.88724863        2.09014239
 C            2.72106466        0.42241165        1.55264740
 C            2.82294958       -0.94433043        1.26234944
 C            2.27545211        1.27177207        0.53684529
 C            0.61373831        2.07589816        2.06554636
 C            1.21340156        2.13499754        0.81199595
 C           -1.30701444        0.96301113        3.03315060
 C           -0.76809222        1.88529321        2.12320291
 C           -2.26347007       -1.23677833        2.93484352
 C           -2.33656688        0.11487413        2.62124693
 C           -1.17546348       -3.04449908        1.93477817
 C           -2.36120402       -2.20767728        1.85870177
 C            0.97956274       -2.94955095        0.85240609
 C           -0.39530421       -3.20511116        0.79406410
 C            2.54628785       -1.34400785       -0.03723532
 C            1.61273467       -2.36584771       -0.24994605
 C            2.52063679        0.91118419       -0.78644917
 C            2.77716595       -0.43469040       -1.05486643
 C            2.06664115        1.74833087       -1.80879273
 C            0.48032980        2.66526138       -0.24401675
 C            1.03194777        2.64889081       -1.52727746
 C           -1.53082390        2.28375169        1.02539005
 C           -0.89304686        2.87305361       -0.06900382
 C           -3.10211780        0.47967921        1.52520935
 C           -2.78797009        1.71449178        0.83950704
 C           -2.81211334       -1.78491861        0.60928647
 C           -3.38681284       -0.51967466        0.50285882
 C           -1.04266573       -3.13683723       -0.43422995
 C           -2.29349867       -2.39749174       -0.53079031
 C            1.07098139       -2.54502113       -1.52702973
 C           -0.27645215       -2.86964365       -1.63649916
 C            2.68073453       -0.90677927       -2.35213383
 C            1.68315460       -1.92491660       -2.61500507
 C            2.39096630        1.42790709       -3.12798660
 C            2.65079974        0.04217139       -3.44562238
 C            1.59206543        1.94323124       -4.22117324
 C            0.38165267        3.33354054       -2.55303168
 C            0.57385606        2.92489354       -3.92938399
 C           -1.67621535        3.24596906       -1.15844305
 C           -1.03448612        3.59010474       -2.41356483
 C           -3.32191440        1.58937987       -0.50528166
 C           -3.40888530        0.16514502       -0.78193715
 C           -2.82195467        2.42013909       -1.48955543
 C           -2.29895935       -1.69360116       -1.80673397
 C           -1.11954781       -2.09972276       -2.54155676
 C           -2.70905419       -0.37014334       -1.86268479
 C            0.84051235       -1.40565346       -3.67813283
 C            1.60787462       -0.38685471       -4.36428168
 C            0.92329720        0.79985574       -4.82555545
 C           -0.51321408       -1.20592457       -3.41430668
 C           -0.69346101        2.36867529       -4.37799770
 C           -1.70513013        2.82419202       -3.45618538
 C           -2.51682565        1.83694791       -2.77795024
 C           -2.17007064        0.48410147       -2.83026157
 C           -0.48741705        0.94307880       -4.52683032
 C           -1.08870817        0.05733221       -3.62428737
