   70
C70 / DATE: 7/ 1/2024 / Origin: Program Fullerene / C70 from database
 C            1.06699051       -0.11436252        4.97594642
 C            2.33736527       -0.30258259        4.30409375
 C            2.28261714       -1.59182722        3.63219675
 C            0.24505779       -1.27981166        4.68245578
 C            0.90435191       -2.01896603        3.62262429
 C           -1.10541263       -0.81862197        4.46660998
 C            0.27395242        1.06481136        4.67772315
 C           -1.10500725        0.63322475        4.57470593
 C            0.75296011        2.01738738        3.78341749
 C            2.78100190        0.68031284        3.32961641
 C            2.03131896        1.82583529        3.10683679
 C            2.94132320       -1.44689190        2.35760651
 C            3.30479004       -0.04859881        2.19139125
 C            2.41987798       -2.10035672        1.24961922
 C            0.27516103       -2.18605817        2.38628973
 C            1.05696790       -2.44229362        1.24516547
 C           -1.75956316       -1.15368396        3.21905157
 C           -1.07666754       -1.85219443        2.23015144
 C           -1.92818776        1.14728147        3.49465566
 C           -2.52887419        0.00443569        2.82265480
 C           -0.15716889        2.65055900        2.83847502
 C           -1.48035343        2.21562970        2.72021522
 C            1.90311276        2.33428338        1.75020068
 C            0.60480164        2.96790775        1.63664685
 C            3.22077611        0.48975544        0.90742396
 C            2.38868426        1.59421058        0.67582613
 C            3.02145059       -1.77582015        0.04597333
 C            3.44823469       -0.39875736       -0.13689863
 C            2.42431027       -2.22206017       -1.18806813
 C            0.41372909       -2.71956688        0.02640165
 C            1.16565388       -2.79476237       -1.15774870
 C           -1.61531940       -1.85024392        0.95206461
 C           -0.97747427       -2.58254129       -0.03523583
 C           -2.88392989        0.14033563        1.48597286
 C           -2.55891765       -0.87991015        0.58878502
 C           -2.15704102        2.46981935        1.53183049
 C           -3.01581546        1.42769868        0.99178394
 C           -0.04418546        2.97109788        0.40960881
 C           -1.42799698        3.03437722        0.40944255
 C            1.82992116        1.79591461       -0.59370815
 C            0.60432507        2.47067051       -0.72142400
 C            3.11246581       -0.01395376       -1.48976975
 C            2.71050391       -1.21824236       -2.19812740
 C            2.39287762        1.15104619       -1.69947566
 C            1.85174256       -1.09330944       -3.28565119
 C            0.52613668       -2.96518834       -2.37986389
 C            0.87975710       -2.07975828       -3.48357599
 C           -1.65623742       -2.79289199       -1.22619364
 C           -0.90497165       -3.15973912       -2.40330261
 C           -2.92319545       -0.75283281       -0.75774381
 C           -2.66538662       -1.82335617       -1.61529666
 C           -3.09212093        1.62313997       -0.44039496
 C           -2.14782200        2.67220422       -0.79313876
 C           -3.19048447        0.51954507       -1.28288594
 C           -0.05756816        2.49215192       -1.95455024
 C           -1.45952798        2.54266939       -1.99095345
 C            1.84442373        1.34120010       -2.96161289
 C            1.67077407        0.17974079       -3.82441998
 C            0.66145177        2.16312686       -3.10065499
 C            0.54560625        0.44473892       -4.70010550
 C           -0.03284177        1.71753614       -4.29756077
 C           -0.33878190       -1.78810205       -4.22891111
 C           -1.44579886       -2.42358628       -3.53256867
 C           -2.54517209       -1.60576217       -3.04782542
 C           -0.52421531       -0.53031183       -4.78771635
 C           -2.99211095        0.76377810       -2.64064719
 C           -2.14286177        1.88352808       -3.00869038
 C           -1.46661067        1.55409132       -4.24306602
 C           -2.70790536       -0.32653955       -3.55407889
 C           -1.77894686        0.16944045       -4.56159794
