   70
C70 / DATE: 7/ 1/2024 / Origin: Program Fullerene / C70 from database
 C            1.31936565        0.06232993        4.59871202
 C            2.59168725       -0.09716033        3.92265403
 C            2.55697089       -1.35600522        3.19741294
 C            0.50319567       -1.09858291        4.29098214
 C            1.25446468       -1.95813047        3.39364371
 C           -0.80122837       -0.63189735        3.85440900
 C            0.53006663        1.24876140        4.32386856
 C           -0.75994415        0.81973267        3.79780754
 C            1.14905186        2.35290064        3.75543976
 C            3.02673835        0.93814459        3.00108272
 C            2.40938812        2.18080884        3.03408447
 C            2.99322831       -1.10301317        1.84155658
 C            3.28090315        0.31475134        1.71167415
 C            2.33206382       -1.72870689        0.79775341
 C            0.58749895       -2.48413530        2.29269460
 C            1.24384226       -2.57050209        1.06032219
 C           -1.42767198       -1.31165981        2.82121376
 C           -0.80130164       -2.44323200        2.29779264
 C           -2.29770894       -0.59798256        2.00330122
 C           -1.31711307        1.47917433        2.69659601
 C           -2.01043325        0.73966092        1.73416141
 C            0.32833037        3.27040537        2.98916905
 C           -0.90314008        2.77325322        2.40000102
 C            2.31810053        2.94507237        1.80522497
 C            1.14597659        3.79320163        1.91387916
 C            2.90851227        0.97219940        0.53593691
 C            2.58541959        2.33386916        0.57961664
 C            2.46283134       -1.17999129       -0.46784207
 C            2.58559627        0.20701218       -0.59664345
 C            2.05601423       -1.94642775       -1.54412161
 C            0.57339323       -3.16486179       -0.01833301
 C            1.06826123       -2.98511664       -1.30936162
 C           -1.47548564       -3.18150886        1.33879291
 C           -0.74764041       -3.58274015        0.14555793
 C           -3.09616292       -1.31196251        1.12275386
 C           -2.78340744       -2.71442101        0.92187240
 C           -3.38767003       -0.73885793       -0.17743004
 C           -2.13124697        1.22404370        0.42240088
 C           -2.74524842        0.44012898       -0.55502465
 C           -0.94905174        3.23469638        1.02403385
 C            0.29891785        3.93243649        0.74793817
 C           -1.49421189        2.40510685        0.04473481
 C            2.10875362        2.95537071       -0.56941192
 C            0.88269297        3.74379419       -0.49045058
 C            2.24500981        0.83633202       -1.80142286
 C            2.06193209        2.21570970       -1.81717520
 C            1.75181844       -1.30418464       -2.80434937
 C            1.76299172        0.08493967       -2.88047151
 C            0.15493003       -2.99293468       -2.44324723
 C            0.68258448       -2.06554447       -3.43541883
 C           -1.67117639       -3.52519842       -0.98050087
 C           -2.93746323       -3.01196129       -0.48735457
 C           -3.49898199       -1.83785363       -1.12497652
 C           -1.21889317       -3.09083328       -2.22288486
 C           -3.16663166       -1.60253509       -2.44587941
 C           -2.10831910       -2.40111332       -3.04953087
 C           -2.49569121        0.69204646       -1.90839168
 C           -2.92423459       -0.23712908       -2.86042101
 C           -1.12385880        2.58665905       -1.29044409
 C            0.04293287        3.29613322       -1.57806637
 C            0.95045287        2.76492441       -2.57127048
 C           -1.64616216        1.74535094       -2.27707935
 C            1.02115157        0.72084673       -3.87663464
 C            0.40757072        2.00048259       -3.58163295
 C           -1.01527175        1.73735275       -3.52642866
 C           -0.17935817       -1.43524679       -4.32087301
 C           -1.60790849       -1.64283812       -4.18310713
 C           -2.24398096       -0.33391707       -4.13577415
 C            0.02909837       -0.03301505       -4.62817277
 C           -1.24514003        0.65356813       -4.45894806
