   70
C70 / DATE: 7/ 1/2024 / Origin: Program Fullerene / C70 from database
 C            1.61489475        0.02288715        4.67689773
 C            0.79375499       -1.14649185        4.43028534
 C            1.38817095       -1.90349088        3.34053867
 C            2.72405203       -0.01419991        3.74357743
 C            2.57939397       -1.19502889        2.90871147
 C            2.79056431        1.27830994        3.09228003
 C            0.81455230        1.19291342        4.35671518
 C            1.53001831        1.95695099        3.35656203
 C           -0.57431142       -0.69469736        4.27824233
 C           -0.52613765        0.74171734        4.04683957
 C           -1.41402187       -1.45628263        3.48188315
 C            0.54464965       -2.45534078        2.37992558
 C           -0.82413541       -2.48072473        2.63171472
 C            0.98517379       -2.56461769        1.06048265
 C            2.83582070       -1.08191946        1.54703391
 C            2.14735083       -1.89898619        0.65271557
 C            3.29921215        1.32431765        1.80276797
 C            3.44433211        0.07743670        1.06599185
 C            2.75519135        2.29832004        0.87330854
 C            0.82688711        2.49419207        2.28277345
 C            1.55397388        2.93090134        1.17638784
 C           -1.17507661        1.26329371        2.93013638
 C           -0.54841139        2.24645645        2.14896914
 C           -2.41576482       -0.77909341        2.67949846
 C           -2.28208922        0.58060729        2.42471027
 C           -1.74207746       -2.70627917        1.53070278
 C           -2.76395633       -1.66954941        1.58560775
 C            0.13883892       -3.12392710        0.09647669
 C           -1.24634607       -3.08743729        0.29111292
 C            0.65224123       -3.38622566       -1.17329941
 C            2.41813201       -1.77886139       -0.70718378
 C            1.87977817       -2.72207566       -1.57100597
 C            3.35007974        0.39397115       -0.35058746
 C            2.95556181        1.78486081       -0.47363954
 C            2.78658003       -0.53130027       -1.21061021
 C            2.05601534        2.15987844       -1.47051888
 C            0.88675083        3.58098675        0.15039717
 C            1.26210019        3.27764688       -1.22168741
 C           -1.24547863        2.82884409        1.08587192
 C           -0.56009555        3.65069426        0.19580322
 C           -2.98847107        1.12172202        1.36165066
 C           -2.49525246        2.32713989        0.72577006
 C           -3.24962700       -1.13284305        0.39420572
 C           -3.49589064        0.23826274        0.31911227
 C           -2.09136228       -2.93224800       -0.80285819
 C           -3.07016255       -1.85712652       -0.78280849
 C           -0.23669464       -3.39689970       -2.32388780
 C           -1.56577264       -3.03805459       -2.15018555
 C            1.78163565       -2.39913887       -2.98294339
 C            0.50092340       -2.88720160       -3.46569172
 C            2.21374002       -0.07445603       -2.39398286
 C            1.66574758        1.21853335       -2.44091183
 C            1.90772866       -1.00850902       -3.37723846
 C            0.60489848        1.50542783       -3.32219949
 C            0.10970574        3.53590776       -2.05164975
 C           -1.02711210        3.77059920       -1.17510910
 C           -0.27274116        2.53669510       -3.01788998
 C           -2.88692952        2.27349406       -0.67648496
 C           -3.35493793        0.92879987       -0.95467264
 C           -2.12059456        2.92855348       -1.62310946
 C           -1.66978099        2.20015594       -2.79663500
 C           -2.97519251       -1.15629386       -2.05390052
 C           -2.14780943       -1.95643376       -2.93839189
 C           -2.87399757        0.23246320       -2.06093861
 C           -2.07221970        0.88070782       -3.01235521
 C           -0.09116820       -1.84100471       -4.27712890
 C            0.83894737       -0.72313472       -4.30487314
 C            0.08072832        0.48972501       -4.11073746
 C           -1.39985238       -1.32133436       -3.91774698
 C           -1.31465488        0.12783478       -3.91279638
