   70
C70 / DATE: 7/ 1/2024 / Origin: Program Fullerene / C70 from database
 C            1.18315434       -0.07617729        4.91832670
 C            2.50166460       -0.38015576        4.39895204
 C            2.41762387       -1.65824023        3.70693196
 C            0.36298252       -1.26339309        4.74548431
 C            1.03924813       -2.11581748        3.78827569
 C           -0.97984135       -0.81922515        4.44555162
 C            0.44050911        1.03931463        4.35309552
 C           -0.94659357        0.63030652        4.31853945
 C            0.96136924        1.74333617        3.26647588
 C            3.11801553        0.56618705        3.49286582
 C            2.32371321        1.66682078        2.97654442
 C            3.01872305       -1.49468179        2.39106859
 C            3.60986184       -0.17623498        2.34326169
 C            2.31535530       -1.94353076        1.28009502
 C            0.39577790       -2.48169311        2.60709535
 C            1.18580992       -2.72969106        1.48763982
 C           -1.63507512       -1.33653392        3.26000874
 C           -0.97570947       -2.23821497        2.42873470
 C           -1.73833220        0.98190993        3.15905472
 C           -2.33451525       -0.23136417        2.63923492
 C            0.10071127        2.29652724        2.31051601
 C           -1.24031142        1.89172816        2.24247791
 C            0.65761546        2.94360175        1.20393427
 C            2.75656742        1.87399691        1.60885824
 C            3.37324946        0.63750023        1.16544595
 C            1.89448928        2.50404303        0.72908472
 C            2.47488343       -1.29767342        0.04731957
 C            2.87587455        0.04089519        0.00798854
 C            1.86845842       -1.85484435       -1.07783819
 C            0.60291203       -3.34192981        0.39419605
 C            1.11304265       -3.01662099       -0.92073561
 C           -1.53523587       -2.47980671        1.17071759
 C           -0.84149391       -3.31691606        0.30169379
 C           -2.58213967       -0.31069686        1.27359856
 C           -2.44519412       -1.54913968        0.65115057
 C           -1.90452543        1.99368501        1.02545730
 C           -2.51088587        0.85044424        0.49268775
 C           -0.20453548        3.56488540        0.30385653
 C           -1.55344000        3.03992866        0.19093275
 C            0.27398616        3.81962733       -1.04285399
 C            2.01224244        2.18804336       -0.62123341
 C            2.34092682        0.87639854       -0.97474398
 C            1.36913251        3.00793119       -1.53315775
 C            1.69291671       -1.08033384       -2.22631585
 C            1.81501511        0.31354040       -2.14181403
 C            1.07698836       -1.66766811       -3.32900470
 C            0.05403670       -3.31880767       -1.86581512
 C           -1.19018384       -3.35856402       -1.10876772
 C            0.08314331       -2.70084351       -3.10534759
 C           -2.90791260       -1.67658036       -0.65288116
 C           -2.28758993       -2.63535179       -1.55143650
 C           -2.78197773        0.76337127       -0.88016077
 C           -3.17510041       -0.46588532       -1.40922929
 C           -1.90517039        2.98440591       -1.21384806
 C           -0.84400117        3.64482922       -1.94916078
 C           -2.45403464        1.81907004       -1.73999076
 C            0.98038792        2.47310753       -2.82217600
 C            1.27666879        1.14799669       -3.13511524
 C           -0.34211430        2.99907234       -3.14331990
 C            0.59222125       -0.83656963       -4.40717616
 C            0.65641689        0.59864587       -4.25523162
 C           -1.15659570       -2.22778579       -3.69562097
 C           -2.27699324       -2.05791666       -2.88642225
 C           -2.94209329       -0.76182312       -2.81097582
 C           -0.79869988       -1.19808300       -4.65355119
 C           -2.33380107        1.59235718       -3.11615178
 C           -1.21295994        2.18004445       -3.84296519
 C           -0.63310097        1.13119386       -4.65658595
 C           -2.57210949        0.26725315       -3.66486991
 C           -1.57342817        0.02679524       -4.69265583
