   70
C70 / DATE: 7/ 1/2024 / Origin: Program Fullerene / C70 from database
 C            1.04208792       -0.19095232        4.89228818
 C            2.28998110       -0.42655845        4.18672491
 C            2.18379430       -1.70532946        3.50671825
 C            0.18663220       -1.34762419        4.68116802
 C            0.83465330       -2.20275544        3.70572168
 C           -1.14926684       -0.86971320        4.40040067
 C            0.26469783        0.99743007        4.58135941
 C           -1.10907551        0.58249786        4.36085497
 C            0.80506551        1.97705131        3.75718719
 C            2.74467259        0.54994371        3.21588411
 C            2.11843860        1.78666914        3.14980597
 C            2.65918170       -1.53560880        2.13982366
 C            3.05016233       -0.14899611        1.97505840
 C            1.95773476       -2.15695004        1.11353470
 C            0.13619969       -2.63378618        2.58266217
 C            0.88362704       -2.97479128        1.45804883
 C           -1.80337873       -1.32031296        3.18846819
 C           -1.21419403       -2.29790915        2.40076535
 C           -1.79311395        1.01286472        3.15013902
 C           -2.35764511       -0.16494645        2.51635476
 C           -0.04349959        2.61471922        2.76161353
 C           -1.21694723        1.99076216        2.34716071
 C            2.11198545        2.49062756        1.88210796
 C            0.83904884        3.18170080        1.75970408
 C            2.80275587        0.48532245        0.75948445
 C            2.63324873        1.87240782        0.74953957
 C            2.00339361       -1.60948685       -0.17289538
 C            2.38224222       -0.27408519       -0.34295717
 C            1.37964177       -2.29747949       -1.21797043
 C            0.23848726       -3.66642076        0.44948968
 C            0.69789601       -3.47696531       -0.90892825
 C           -1.76322272       -2.51386038        1.14044406
 C           -1.20317889       -3.54490710        0.40327844
 C           -2.45326337       -0.19787944        1.12844666
 C           -2.33052178       -1.41929563        0.46299904
 C           -1.55806283        2.04358078        0.99790809
 C           -2.24832258        0.97498031        0.41152123
 C            0.35221752        3.40981934        0.47870320
 C           -0.95105334        3.00157918        0.18408704
 C            2.41407935        2.50833451       -0.46289217
 C            1.29130566        3.42782378       -0.54817641
 C            2.21461699        0.34444670       -1.58318107
 C            2.40211227        1.72042131       -1.67618893
 C            1.17223242       -1.66158985       -2.45128265
 C            1.58682540       -0.33816145       -2.62929393
 C            0.32082286       -2.23051578       -3.40393747
 C           -0.39574022       -3.92546995       -1.74373907
 C           -1.61111258       -3.73148709       -0.96819126
 C           -0.59666701       -3.27907535       -3.01389224
 C           -2.46747136       -1.44632686       -0.93418659
 C           -2.34776574       -2.66428071       -1.60375742
 C           -1.92060154       -2.67227071       -2.98290225
 C           -2.47589841        0.97665241       -0.96126401
 C           -2.46906897       -0.24075173       -1.66190151
 C           -1.44399212        3.18310473       -1.10406693
 C           -2.35290869        2.18522989       -1.63644411
 C            0.84159788        3.45036562       -1.92597569
 C            1.65387669        2.48287573       -2.65803667
 C           -0.52224067        3.53781585       -2.17072007
 C            1.18504719        0.36250101       -3.77481501
 C            1.11937706        1.81501351       -3.74788271
 C           -0.47255626       -1.35249666       -4.23458556
 C           -1.81073964       -1.40860892       -3.66816872
 C           -2.31032999       -0.26115126       -3.06366231
 C            0.03859090       -0.10508296       -4.53866157
 C           -2.21674840        2.19076156       -3.07339526
 C           -1.05573684        3.00340858       -3.40840206
 C           -0.18520298        2.20934248       -4.25376025
 C           -2.08553293        0.92515633       -3.75506590
 C           -0.90326998        0.99867305       -4.59827513
