   70
C70 / DATE: 7/ 1/2024 / Origin: Program Fullerene / C70 from database
 C            1.33490878        0.08408995        5.02325223
 C            2.54611689        0.07463932        4.22223385
 C            2.55713150       -1.15196353        3.43683727
 C            0.54168949       -1.06692030        4.63234236
 C            1.28987313       -1.81781216        3.63072470
 C           -0.79216696       -0.59852673        4.28470303
 C            0.47021682        1.24987825        4.99227414
 C           -0.84529504        0.82646001        4.53461401
 C            0.86007800        2.39857009        4.19807970
 C            2.82221954        1.17857232        3.31763591
 C            2.02323169        2.31597453        3.32663324
 C            2.95446989       -0.81856416        2.08365586
 C            3.22357152        0.60669095        2.04527750
 C            2.27719126       -1.39248090        1.00535207
 C            0.59844202       -2.27644771        2.51566208
 C            1.20454873       -2.25597483        1.24886052
 C           -1.36124909       -1.09435728        3.12027389
 C           -0.78674617       -2.23260703        2.57753648
 C           -2.03056776       -0.22711042        2.24878595
 C           -1.25134878        1.70035889        3.44839754
 C           -0.27998050        2.76884274        3.37350684
 C           -1.70909189        1.12897379        2.26262370
 C            1.65535247        2.92583057        2.06400729
 C            0.22211675        3.13707067        2.06907119
 C            2.94740125        1.27532129        0.86319555
 C            2.21855607        2.47142724        0.87910680
 C            2.38364608       -0.77342808       -0.24222691
 C            2.92444327        0.51636324       -0.30376910
 C            1.66900519       -1.28350753       -1.33273353
 C            0.47804664       -2.77317476        0.16946993
 C            0.70669312       -2.28437294       -1.12830889
 C           -1.49155562       -2.88164905        1.59091500
 C           -0.73911934       -3.38513068        0.46503577
 C           -2.60270405       -0.78000077        1.10031687
 C           -2.61250472       -2.17000687        1.01878089
 C           -2.63725702       -0.02621724       -0.08311903
 C           -1.49244461        1.78454067        1.04727641
 C           -0.47872845        2.74542794        0.93501152
 C           -2.02196025        1.23275150       -0.12023231
 C            1.57620746        2.83588742       -0.30017070
 C            0.17346588        2.87793953       -0.28910128
 C            2.88547597        1.21204139       -1.50080619
 C            2.22586275        2.50114471       -1.47760357
 C            1.84032681       -0.70890339       -2.59858667
 C            2.46416656        0.52978592       -2.70339917
 C            1.07050571       -1.14820492       -3.67143603
 C           -0.10137707       -2.71726569       -2.19564475
 C            0.10517386       -2.20593568       -3.47143223
 C           -1.70958013       -3.60477176       -0.58109818
 C           -2.88857893       -2.81344988       -0.24247501
 C           -1.35266094       -3.26750377       -1.93542301
 C           -3.11740168       -0.60231071       -1.27234001
 C           -3.18767504       -1.98945397       -1.38895572
 C           -2.52545392       -2.63223850       -2.50850371
 C           -3.10012565        0.14102572       -2.45081439
 C           -1.69445144        1.80895256       -1.34791105
 C           -0.53992798        2.58644703       -1.45185618
 C           -2.35449345        1.38423155       -2.49502032
 C            1.52773008        2.66774010       -2.73114070
 C            1.87863158        1.53706612       -3.56945958
 C            0.08668376        2.73628133       -2.68725972
 C            0.48423287       -0.16828030       -4.58152933
 C           -1.68433009        1.46602717       -3.78461080
 C            0.70146619        1.17931488       -4.33255626
 C           -0.40354464        1.99917279       -3.83673051
 C           -1.05717303       -1.90741034       -4.29928760
 C           -2.37248842       -1.91528191       -3.68170859
 C           -2.87902476       -0.55307997       -3.71310290
 C           -0.85874211       -0.60446210       -4.90545867
 C           -1.96913007        0.24396368       -4.51563743
