   70
C70 / DATE: 7/ 1/2024 / Origin: Program Fullerene / C70 from database
 C            1.09092582       -0.03861209        4.57015153
 C            2.28910534       -0.34993369        3.82621718
 C            2.14719134       -1.70431042        3.31649478
 C            0.24024440       -1.21880338        4.54251333
 C            0.77568269       -2.11179641        3.53175415
 C           -1.12620307       -0.76534084        4.41066495
 C            0.28222157        1.08446336        4.14221543
 C           -1.10343811        0.68323361        4.27819352
 C            0.64125344        1.81689082        3.01342580
 C            2.65249091        0.49436200        2.70430573
 C            1.85657515        1.57999584        2.35236533
 C            2.65445692       -1.70969340        1.96327321
 C            3.12482181       -0.37558788        1.64719918
 C            1.95114010       -2.38072338        0.98037051
 C           -0.00327587       -2.45362697        2.42378530
 C            0.63095926       -2.79110370        1.21742896
 C           -1.92086150       -1.28167779        3.31724432
 C           -1.38762975       -2.23125070        2.44862997
 C           -2.03205996        1.04720438        3.21940378
 C           -2.66671879       -0.17010026        2.75162848
 C           -0.35548823        2.53106188        2.35198047
 C           -1.64194753        1.98631814        2.27511634
 C            0.03582567        3.47694041        1.41502850
 C            2.05936598        2.15388674        1.09571270
 C            1.31318754        3.28190201        0.75753497
 C            3.01029421        0.06272201        0.33011154
 C            2.68266180        1.39864709        0.09262126
 C            2.34844094       -2.16310566       -0.32727208
 C            2.79747498       -0.88278934       -0.68252866
 C            1.83378101       -3.01474559       -1.28495182
 C           -0.12567075       -3.29896474        0.15206678
 C            0.48881898       -3.51310229       -1.08295787
 C           -2.13957998       -2.52641145        1.31986848
 C           -1.50602852       -3.13974101        0.17037046
 C           -3.06456650       -0.25694668        1.41996900
 C           -3.06937228       -1.52083358        0.82989665
 C           -2.33033499        2.02601340        1.06341130
 C           -2.99103631        0.87924663        0.60573721
 C           -0.92179841        3.90821143        0.41512042
 C           -2.09667005        3.08908915        0.19576394
 C            1.16741261        3.67618963       -0.63421697
 C           -0.22238269        4.03519699       -0.85198604
 C            2.70235308        1.86334573       -1.21695799
 C            1.82305916        2.94900509       -1.61260837
 C            2.77230094       -0.46265718       -2.02015424
 C            2.72283711        0.90091582       -2.30599232
 C            1.99248016       -2.69079189       -2.68375251
 C            2.44683185       -1.36331756       -3.03327818
 C           -0.25497473       -3.20987242       -2.29554505
 C            0.70959879       -2.90931481       -3.33397194
 C           -2.18000170       -2.65067795       -1.02541209
 C           -3.15271534       -1.65428895       -0.61428417
 C           -1.43563639       -2.47626906       -2.18988754
 C           -3.34912213        0.77703854       -0.73859140
 C           -3.33082149       -0.52282360       -1.38682359
 C           -2.22992185        2.89271497       -1.23670505
 C           -0.98552361        3.31277818       -1.85683998
 C           -2.85608051        1.75005971       -1.69838175
 C            1.07511983        2.49335732       -2.77342047
 C            1.81355907        1.38286095       -3.33834197
 C           -0.31875061        2.44709449       -2.72252121
 C            1.61651997       -0.90819313       -4.13449627
 C            0.45978636       -1.78545184       -4.20426883
 C            1.13737961        0.46169129       -4.11905116
 C           -1.65230846       -1.34811657       -3.00191674
 C           -2.59300012       -0.39011804       -2.62973352
 C           -2.26675297        1.01692371       -2.80563314
 C           -1.00470139        1.36418224       -3.28726034
 C           -0.71563314       -0.97467670       -3.96632666
 C           -0.31515070        0.42222740       -4.05150554
