   70
C70 / DATE: 7/ 1/2024 / Origin: Program Fullerene / C70 from database
 C            1.13021709        0.12906167        4.95085713
 C            2.39421259        0.01517951        4.25108556
 C            2.52827991       -1.36988982        3.86130108
 C            0.34179984       -1.05329790        4.62596479
 C            1.20301829       -1.96467540        3.91304001
 C           -0.86783125       -0.60783558        3.97237947
 C            0.30380728        1.28063731        4.67383930
 C           -1.01535785        0.79067942        4.30675821
 C            0.70582380        2.18629180        3.61477037
 C            2.61691237        0.81808905        3.05742863
 C            1.69720946        1.79832671        2.70640340
 C            3.22478830       -1.39943925        2.58785545
 C            3.13053629       -0.06095373        2.01923509
 C            2.95420718       -2.46945781        1.75716936
 C            0.74125760       -2.58526218        2.75919380
 C            1.71949280       -3.20351938        1.99575191
 C           -1.11615759       -1.01088675        2.66193463
 C           -0.40550720       -2.08366664        2.10856447
 C           -1.89787891       -0.20349018        1.83181620
 C           -1.52287529        1.68356061        3.28724391
 C           -0.53435303        2.73011315        3.09977874
 C           -2.11291124        1.14737040        2.14993199
 C           -0.50298460        3.35911536        1.86853805
 C            1.55406568        2.14185142        1.36245081
 C            0.68166776        3.17504036        1.04854109
 C            2.68423076        0.10081474        0.70186140
 C            1.94628263        1.23787654        0.36201082
 C            3.00743706       -2.25633650        0.32909879
 C            2.73152175       -0.98435849       -0.18144065
 C            1.34159770       -3.82234133        0.75301115
 C            2.31866570       -3.39233771       -0.23331320
 C           -0.71340845       -2.50445418        0.80183374
 C            0.03500373       -3.51601806        0.21394196
 C           -2.26779458       -0.67517601        0.57239360
 C           -1.55047970       -1.72472846       -0.00865202
 C           -3.09591957        0.11693853       -0.21058102
 C           -2.42337319        2.03532266        1.12354557
 C           -1.63542634        3.17326432        0.97770046
 C           -3.09914623        1.55022342        0.01582050
 C            0.28206498        3.37084783       -0.32497659
 C           -1.16335859        3.53508307       -0.34325721
 C            1.53188712        1.42446516       -0.96451321
 C            0.86388579        2.60448668       -1.32277592
 C            2.17656046       -0.86630007       -1.46749294
 C            1.65129541        0.36881481       -1.88385721
 C            1.60388034       -3.18545858       -1.45837615
 C            0.20709807       -3.50496556       -1.21767034
 C            1.85744705       -2.03417838       -2.18429171
 C           -1.62011866       -1.95659340       -1.40146447
 C           -0.71130769       -2.83857917       -2.01195923
 C           -3.16425842       -0.10476755       -1.63855597
 C           -2.41371564       -1.12311375       -2.21423272
 C           -2.91888074        2.20007517       -1.27437049
 C           -1.85129234        3.08356376       -1.46152997
 C           -3.22955940        1.20101168       -2.28629231
 C            0.28614962        2.70988835       -2.57963713
 C           -1.13284405        3.03315131       -2.65152214
 C            1.14756977        0.50567476       -3.18561918
 C            0.55598535        1.70289387       -3.57695045
 C            1.09456207       -1.92082831       -3.33247250
 C           -0.23358444       -2.50783486       -3.27242020
 C            0.94444157       -0.63283904       -3.95809717
 C           -2.22658197       -1.09976660       -3.59915256
 C           -1.08058288       -1.76607439       -4.16627017
 C           -0.24954123       -0.74502859       -4.78129023
 C           -2.72433108        1.34987528       -3.57027697
 C           -1.69057042        2.34196976       -3.79574830
 C           -0.58827183        1.69008838       -4.47968739
 C           -2.35439372        0.16029630       -4.31299700
 C           -1.08026506        0.42251043       -4.97130671
