   70
C70 / DATE: 7/ 1/2024 / Origin: Program Fullerene / C70 from database
 C            1.25636894       -0.01748531        5.08110865
 C            0.46686807       -1.20621338        4.80982892
 C            1.29350120       -2.12537488        4.06824329
 C            2.48730378       -0.12330437        4.31612176
 C            2.54664178       -1.44945569        3.75294209
 C            2.53780586        1.00133477        3.40947491
 C            0.51784804        1.13094601        4.57847224
 C            1.35009125        1.81381504        3.62464769
 C           -0.77902183       -0.77945535        4.21221137
 C           -0.76881020        0.67340189        4.12511949
 C           -1.32856976       -1.48956540        3.14577926
 C            0.77429610       -2.67170642        2.82945864
 C           -0.52379739       -2.36910554        2.39860619
 C            2.76693052       -1.58438726        2.32366158
 C            1.85117505       -2.60386258        1.86142600
 C            2.97244965        0.82659878        2.09674392
 C            2.96027864       -0.45690171        1.52170018
 C            2.80206343        1.92573799        1.26683092
 C            0.76433253        2.39909523        2.50707227
 C            1.65027198        2.77895621        1.51114927
 C           -1.34063105        1.25562230        2.99733348
 C           -0.55413824        2.05581762        2.14356202
 C           -2.40776029       -0.88078609        2.52243822
 C           -2.42391038        0.57373787        2.46558639
 C           -2.86796474       -1.36745425        1.24269463
 C           -0.82899148       -2.62942079        1.05176642
 C           -2.04279739       -2.19953342        0.49943515
 C            1.50121445       -2.61106789        0.52682659
 C            0.21508089       -3.01116621        0.20471522
 C            2.77198811       -0.59776909        0.13758552
 C            2.16405858       -1.76240491       -0.35698304
 C            2.93519878        1.77254754       -0.16435098
 C            2.97427806        0.49877218       -0.70478067
 C            1.14357901        3.21464379        0.23531373
 C            2.08178600        2.77256610       -0.78313984
 C           -1.01979318        2.36681761        0.84595701
 C           -0.21309209        3.11750366       -0.02363866
 C           -2.95091629        0.95414485        1.17875651
 C           -3.51295399       -0.24621918        0.58738806
 C           -2.22784211        1.82447546        0.37624209
 C           -3.67028638       -0.28908145       -0.78448996
 C           -2.25962052       -2.30785033       -0.87867464
 C           -3.15179919       -1.43613275       -1.50976008
 C           -0.04345777       -3.29463136       -1.12446825
 C           -1.36991958       -3.04950235       -1.64666225
 C            1.87307936       -1.88696032       -1.71844830
 C            0.90940848       -2.81762729       -2.11188583
 C            2.75452674        0.37164512       -2.07006342
 C            2.25994754       -0.88246801       -2.60021606
 C            1.60403534        2.55414875       -2.07036211
 C            2.08963066        1.45508836       -2.78430432
 C           -0.61051376        3.31910503       -1.34107733
 C            0.36692215        3.10467773       -2.40020131
 C           -2.55495056        1.89763384       -0.97924791
 C           -3.33048053        0.89115471       -1.55884155
 C           -1.87375738        2.78451327       -1.79744589
 C           -2.90859143       -1.00206990       -2.87990519
 C           -3.04508906        0.44646333       -2.91478139
 C           -1.23200241       -2.76888772       -3.06705735
 C            0.18677502       -2.62988357       -3.35665700
 C           -1.91860984       -1.62251598       -3.62994166
 C            1.44991387       -0.58077638       -3.77483277
 C            1.31018766        0.86390147       -3.86474274
 C            0.37730690       -1.40096749       -4.10098695
 C           -0.93459870       -0.81687511       -4.33840989
 C           -0.34338649        2.64243046       -3.57736627
 C           -1.74302044        2.49037294       -3.21626774
 C           -2.19794518        1.20440532       -3.71259970
 C            0.08933030        1.42069288       -4.22527650
 C           -1.07745511        0.56610160       -4.38833215
