   70
C70 / DATE: 7/ 1/2024 / Origin: Program Fullerene / C70 from database
 C            1.54329401        0.08003983        4.71682650
 C            0.75472063       -1.12575456        4.54972615
 C            1.46210296       -2.00805122        3.63546483
 C            2.72434800       -0.04669763        3.88231383
 C            2.73816778       -1.38411861        3.32218844
 C            2.75518664        1.08408789        2.97087651
 C            0.75770726        1.18810914        4.20361635
 C            1.53369054        1.84222912        3.17183977
 C           -0.59685205       -0.72406148        4.20871397
 C           -0.55579509        0.68625022        3.85197250
 C           -1.34128037       -1.57877075        3.41451076
 C            0.73468087       -2.64818740        2.63065503
 C           -0.65840394       -2.66838830        2.73339066
 C            1.35110221       -2.95635808        1.41054429
 C            3.27186087       -1.55191984        2.05633618
 C            2.62159642       -2.45920599        1.12852534
 C            3.19880592        0.88590617        1.66356057
 C            3.67288354       -0.37679054        1.29592050
 C            2.76575835        1.76700021        0.66661337
 C            0.88045399        2.31247448        2.04479112
 C            1.64548278        2.56754475        0.91480531
 C           -1.12775186        1.10091885        2.64923582
 C           -0.49243994        2.08779993        1.88954854
 C           -2.26900374       -1.00915310        2.45629180
 C           -2.11822743        0.31697746        2.05574242
 C           -1.47079018       -3.03031915        1.58599639
 C           -2.50921346       -2.02128413        1.44436628
 C            0.59574643       -3.45710440        0.35120083
 C           -0.85166420       -3.51898609        0.45075242
 C            0.93291196       -3.05809038       -1.00848235
 C            2.91646436       -1.99529237       -0.22001818
 C            3.68157188       -0.76396448       -0.10534829
 C            1.94139824       -2.12641661       -1.20853961
 C            3.19611661        1.56065450       -0.64361371
 C            3.52521578        0.21344300       -1.07046879
 C            2.50953779        2.20761942       -1.74979268
 C            1.05570973        3.29519822       -0.10937291
 C            1.51327064        3.13247635       -1.47754895
 C           -1.12233724        2.56994551        0.74116583
 C           -0.39204527        3.37909018       -0.13065486
 C           -2.64802384        0.70544273        0.82543634
 C           -2.28034701        1.93978521        0.28412751
 C           -2.88927986       -1.60149738        0.17618081
 C           -3.24480137       -0.26321182        0.01143473
 C           -1.40232391       -3.18495480       -0.85035285
 C           -0.29697340       -2.95745439       -1.76588008
 C           -2.51382967       -2.35421065       -0.94238555
 C           -0.43501010       -1.97162400       -2.73604112
 C            1.77265139       -1.11784863       -2.16293404
 C            2.69813085       -0.07559923       -2.22535541
 C            2.30232811        1.20333085       -2.78396069
 C            0.59923202       -1.04754120       -2.92920282
 C            1.17081413        1.25726183       -3.58177655
 C            0.39825185        0.04382500       -3.77647244
 C            0.35274730        3.22542903       -2.35010541
 C           -0.80535761        3.51565193       -1.51674388
 C            0.22946191        2.35607996       -3.42897243
 C           -2.87386852        2.37772544       -0.89787569
 C           -2.05833062        3.05377994       -1.89083594
 C           -3.88474788        0.11661525       -1.16051433
 C           -3.77417207        1.49010229       -1.60788072
 C           -2.82663305       -1.86713097       -2.20754834
 C           -1.73282457       -1.65652129       -3.14489501
 C           -3.72886772       -0.73705417       -2.31879906
 C           -0.95120696        0.44642337       -4.12649395
 C           -1.08503167        1.86540843       -3.81194182
 C           -2.21342533        2.33372909       -3.14438925
 C           -3.37539939        1.47449990       -3.00814972
 C           -1.99780133       -0.42838501       -3.87496424
 C           -3.27934313        0.08909323       -3.42636001
