   70
C70 / DATE: 7/ 1/2024 / Origin: Program Fullerene / C70 from database
 C            1.33857678       -0.03845788        4.64492527
 C            2.62341347       -0.34782723        4.04539854
 C            2.58080011       -1.72778425        3.59205270
 C            0.51020356       -1.22922275        4.55822298
 C            1.22070538       -2.21027722        3.75668139
 C           -0.81679388       -0.82200018        4.14120012
 C            0.56794942        1.07632155        4.12314244
 C           -0.77549568        0.60076969        3.83727316
 C            1.16522035        1.97021321        3.24741958
 C            3.10007275        0.46663355        2.94163086
 C            2.45778613        1.65899692        2.64430518
 C            3.18287464       -1.78504959        2.27490869
 C            3.47420085       -0.42246800        1.85433090
 C            2.64977394       -2.66363306        1.34610779
 C            0.57200560       -2.80576148        2.67375332
 C            1.31675260       -3.21151142        1.56619506
 C           -1.52524835       -1.65837652        3.29423051
 C           -0.81422262       -2.69841890        2.56053715
 C           -2.48999085       -1.07120736        2.38580588
 C           -1.46360586        1.07819218        2.71889852
 C           -2.50503914        0.30722873        2.19187518
 C            0.35051774        2.60521563        2.22904293
 C           -0.93867750        2.14584624        1.97431803
 C            2.41510493        2.10815254        1.26571032
 C            1.21272089        2.89975358        1.10262691
 C            3.22698426       -0.05117805        0.53023316
 C            2.78736771        1.24876970        0.23574683
 C            2.75460078       -2.33397816       -0.06138863
 C            3.14164638       -1.05235922       -0.44293366
 C            0.67022656       -3.34184278        0.26617204
 C            1.63447131       -2.95605088       -0.74535335
 C           -1.44736177       -2.83198091        1.25426514
 C           -2.58917688       -1.93910660        1.22544375
 C           -0.65964649       -2.96622131        0.11699417
 C           -2.97921439       -1.37838446        0.01844432
 C           -3.23567622        0.79470434        1.11552886
 C           -3.59772203       -0.13108608        0.05488343
 C           -1.53868339        2.50919289        0.76704996
 C           -2.80650325        2.02012982        0.47716925
 C            0.64147455        2.96852066       -0.15714288
 C           -0.74759885        3.03826309       -0.25902244
 C            2.38206155        1.56527199       -1.06238164
 C            1.38200378        2.52560766       -1.25269105
 C            2.95314900       -0.69542259       -1.77223465
 C            2.70513639        0.69307224       -2.09461726
 C            1.18462801       -2.38090508       -1.92442094
 C            2.03330950       -1.48689843       -2.57259517
 C           -1.08608181       -2.40021828       -1.08898033
 C           -2.34619726       -1.78524167       -1.15552178
 C           -0.18715510       -2.30506603       -2.16293309
 C           -2.81528444       -1.28160769       -2.36498375
 C           -3.74909348        0.63532534       -1.17046430
 C           -3.27632092        1.98540117       -0.89942074
 C           -3.44848355        0.02666557       -2.38187283
 C           -1.31277105        3.30952843       -1.50234983
 C           -2.56707268        2.67697026       -1.87037750
 C            0.89567925        2.77780914       -2.53284258
 C           -0.45231991        3.29986337       -2.67220986
 C            1.95171044        0.72659911       -3.33888028
 C            1.51219967       -0.63149037       -3.62542860
 C            1.09978356        1.79404957       -3.58136871
 C           -0.61545917       -1.81126562       -3.39142084
 C           -1.98993814       -1.38939509       -3.54768066
 C            0.22556585       -0.85798062       -4.09620844
 C           -2.83560326        0.80301875       -3.44773160
 C           -2.40571791        2.10224858       -3.19788109
 C           -1.12247058        2.54533318       -3.71905736
 C           -0.17989377        1.56629968       -4.23646495
 C           -1.99110591       -0.09718944       -4.21700652
 C           -0.60905161        0.26689682       -4.48665699
