   70
C70 / DATE: 7/ 1/2024 / Origin: Program Fullerene / C70 from database
 C            1.26523466        0.08955077        4.48325225
 C            2.50336415       -0.14113120        3.77449864
 C            2.53843893       -1.54723642        3.42107993
 C            0.44814720       -1.11254953        4.36416614
 C            1.19097656       -2.06954115        3.57254261
 C           -0.86411792       -0.70067191        3.90556265
 C            0.43666612        1.20129360        4.07197040
 C           -0.93623506        0.73144986        4.11417699
 C            0.83136822        2.00860764        3.00486824
 C            2.76161647        0.61650943        2.56351633
 C            1.83801687        1.56694406        2.13320528
 C            3.17161903       -1.65479941        2.12118560
 C            3.32548680       -0.30437779        1.59442011
 C            2.72322571       -2.64754358        1.26305020
 C            0.58435437       -2.66683564        2.47048473
 C            1.41266823       -3.23357414        1.50275286
 C           -1.36361817       -1.23333129        2.72108893
 C           -0.73946716       -2.34517729        2.14148647
 C           -2.32867774       -0.51737502        2.00151794
 C           -1.88974643        1.45559661        3.41876432
 C           -2.66492156        0.77939536        2.38906497
 C           -0.08834043        2.94853432        2.55641858
 C           -1.49194509        2.74123362        2.87519425
 C           -0.01619847        3.42741046        1.19097945
 C            1.78299888        1.89280248        0.77228031
 C            0.99027116        2.96563658        0.35129709
 C            3.09849997       -0.08192469        0.24024111
 C            2.45770856        1.09398364       -0.16733773
 C            2.83782094       -2.43051852       -0.16489941
 C            3.16806875       -1.16533009       -0.63790023
 C            0.86402089       -3.63846863        0.21969777
 C            1.75711270       -3.15206972       -0.81771947
 C           -1.33491377       -2.95234867        1.03885359
 C           -0.50106828       -3.57173263        0.02002505
 C           -2.72632702       -0.96374041        0.74109679
 C           -2.41353059       -2.26296160        0.35661224
 C           -3.14170361       -0.03640896       -0.21954028
 C           -2.97929355        1.75288866        1.35746231
 C           -2.26564190        2.97130822        1.67012028
 C           -1.37312429        3.50783405        0.66687148
 C           -3.00425753        1.32757349        0.03665361
 C           -1.57791274        3.16080415       -0.66303051
 C           -2.52539519        2.17611324       -0.97083293
 C            0.83744672        3.21409079       -1.00714845
 C           -0.51083527        3.36278062       -1.53125030
 C            2.37404213        1.38165395       -1.53281250
 C            1.60336415        2.45267174       -1.96859919
 C            3.00558644       -0.93567724       -1.99600999
 C            2.76871067        0.41706931       -2.45447009
 C            1.24835278       -2.63400269       -2.00796490
 C            2.09572525       -1.80050316       -2.73074354
 C           -1.00120653       -3.15315790       -1.27610265
 C           -2.32171042       -2.59555729       -1.05549398
 C           -0.14168145       -2.54345670       -2.19203768
 C           -3.39945048       -0.45717291       -1.51966082
 C           -2.83153077       -1.70926904       -1.98637771
 C           -2.71109695        1.80923499       -2.30209885
 C           -3.27682046        0.50556736       -2.59833706
 C           -0.54352216        2.79934604       -2.86899144
 C            0.79619568        2.32458104       -3.17614626
 C           -1.65074707        2.06024875       -3.26534461
 C            2.07142054        0.31631972       -3.72603822
 C            1.57882844       -1.04741689       -3.84908975
 C            0.96382926        1.21480694       -3.99310843
 C           -0.68507624       -1.72304062       -3.19425038
 C           -2.04368190       -1.40785042       -3.16763673
 C           -2.47586584       -0.10541721       -3.64704764
 C           -1.47097494        0.85601327       -4.06437916
 C            0.14805781       -0.98489310       -4.03277772
 C           -0.18860803        0.39720869       -4.34128089
