   70
C70 / DATE: 7/ 1/2024 / Origin: Program Fullerene / C70 from database
 C            1.51907067        0.09967183        4.78399596
 C            0.73661889       -1.12260737        4.76838927
 C            1.28220835       -1.98956323        3.74006956
 C            2.60238543       -0.06470286        3.83346778
 C            2.56630861       -1.43194772        3.34857481
 C            2.51419221        1.00806379        2.85639751
 C            0.66367720        1.16567178        4.29486504
 C            1.25302420        1.68987658        3.08208266
 C           -0.65505532       -0.74407308        4.66014844
 C           -0.68723215        0.65108564        4.22996049
 C           -1.51147364       -1.63287131        4.02992964
 C            0.41628517       -2.49822964        2.76647185
 C           -0.94351451       -2.55942353        3.05231175
 C            0.84827434       -2.60227015        1.43989495
 C            3.01729617       -1.66080843        2.06268589
 C            2.20495535       -2.47528553        1.17765782
 C            2.89070732        0.73191747        1.54308729
 C            3.43720895       -0.51697617        1.27225231
 C            2.26216821        1.41652156        0.49708909
 C            0.43904489        1.92602135        1.98578809
 C            1.03983874        2.04909584        0.73746176
 C           -1.49458652        1.00048852        3.14719921
 C           -0.93771553        1.68058523        2.05393801
 C           -2.71626157       -1.08740348        3.44376312
 C           -2.67118539        0.28072465        2.96530028
 C           -1.89079931       -2.69800587        1.96311950
 C           -3.06850514       -1.92713380        2.31807679
 C           -0.07287686       -2.52559246        0.38155979
 C           -1.44274167       -2.65560661        0.64433541
 C            0.37188939       -2.29945807       -0.93749932
 C            2.64145352       -2.17340057       -0.16666515
 C            3.46036909       -0.97293497       -0.09491154
 C            1.74590313       -2.27620343       -1.22451796
 C            2.64414658        1.15140127       -0.82450761
 C            3.30580647       -0.05388523       -1.11547785
 C            2.03515949        1.87185722       -1.86396995
 C            0.27008374        2.48765337       -0.33150731
 C            0.84658426        2.56893513       -1.60137497
 C           -1.70486667        1.90338068        0.90820431
 C           -1.11844884        2.56323385       -0.17150385
 C           -3.33428973        0.30495432        1.67650912
 C           -3.64785057       -1.06875276        1.30686400
 C           -2.87535073        1.16625624        0.68841765
 C           -2.36632282       -2.32439184       -0.34520423
 C           -3.47299308       -1.43454424       -0.01729988
 C           -0.54663950       -1.92862622       -1.93146950
 C           -1.90328417       -1.97326965       -1.67220584
 C           -0.11669847       -1.23381353       -3.05820961
 C            2.17756792       -1.73148078       -2.43613991
 C            3.11348787       -0.61985313       -2.36351118
 C            1.20577871       -1.38031518       -3.44915131
 C            2.40297523        1.58585511       -3.18306830
 C            2.86282133        0.25202932       -3.48165476
 C            1.83066902       -0.37638122       -4.28700341
 C            1.52458071        1.93879451       -4.27947399
 C            1.01211282        0.68627362       -4.82160454
 C            0.12834474        3.16881007       -2.63602979
 C            0.38642261        2.78385076       -4.00764037
 C           -1.92233097        2.82738260       -1.27128710
 C           -1.31104784        3.25050849       -2.51601450
 C           -3.28821534        0.92990795       -0.62363027
 C           -3.48247832       -0.38974667       -1.02300269
 C           -2.73392351       -0.88950985       -2.16331740
 C           -2.94411287        1.85493390       -1.59872824
 C           -0.93117027       -0.23080808       -3.61387634
 C           -0.40922873        0.67010397       -4.54842213
 C           -0.79209107        2.06454619       -4.46365645
 C           -1.87398122        2.42277413       -3.57438272
 C           -2.18208767        0.03703159       -3.04179712
 C           -2.61006131        1.35967812       -2.92015204
