   70
C70 / DATE: 7/ 1/2024 / Origin: Program Fullerene / C70 from database
 C            1.01403227       -0.00797778        4.61859681
 C            2.26133685       -0.37773857        3.98928634
 C            2.22411533       -1.80977237        3.75019078
 C            0.18874014       -1.20595390        4.70649496
 C            0.85249642       -2.24189560        3.94484993
 C           -1.15943288       -0.83838829        4.34272767
 C            0.20664934        1.02686246        4.00442146
 C           -1.16918187        0.59616467        4.11761011
 C            0.61030238        1.62045264        2.80722225
 C            2.62047465        0.25739788        2.73930991
 C            1.82992516        1.27616947        2.21196694
 C            2.84544337       -2.06405482        2.46092813
 C            3.09773596       -0.77405969        1.83687519
 C            2.32725235       -3.08531811        1.68137557
 C            0.20301414       -2.86576562        2.87958425
 C            1.00580173       -3.60022855        2.01016746
 C           -1.76083685       -1.45908394        3.17785663
 C           -1.04241086       -2.38704984        2.42763314
 C           -2.04548804        0.85012374        2.99611908
 C           -2.50143380       -0.42493426        2.47745587
 C           -0.35537425        2.25828430        2.02208756
 C           -1.68205499        1.80921580        2.06864337
 C            0.05971036        2.98548373        0.90023160
 C            2.02607933        1.61843431        0.87812603
 C            1.30796549        2.68685033        0.34812970
 C            2.86977749       -0.60100659        0.47330788
 C            2.59847270        0.68154197        0.01012763
 C            2.37276914       -2.95048770        0.23878213
 C            2.50375288       -1.68478225       -0.32639664
 C            0.43578158       -4.13582298        0.79397446
 C            1.36624473       -3.84566355       -0.28775341
 C           -1.45962122       -2.63460612        1.11498169
 C           -0.86166026       -3.65438948        0.38027815
 C           -2.68213269       -0.54187904        1.10001938
 C           -2.32349275       -1.73628848        0.47415264
 C           -2.41772369        1.84814338        0.89745250
 C           -2.81130548        0.62606431        0.33090887
 C           -0.92633454        3.57315754        0.10527341
 C           -2.24083252        2.96278048        0.09856758
 C           -0.62571750        3.99472839       -1.25191071
 C            1.63832191        3.12419882       -0.93226196
 C            0.65869840        3.82623354       -1.74314488
 C            2.52588995        0.89514133       -1.36195349
 C            2.35281185        2.20617755       -1.79877504
 C            1.97229406       -1.43502903       -1.59664699
 C            2.19450636       -0.18823423       -2.18741486
 C            0.58267927       -3.40589177       -1.42238971
 C           -0.81655519       -3.55233621       -1.06495134
 C            0.96628547       -2.26488020       -2.11783961
 C           -2.59239073       -1.88741263       -0.88232811
 C           -1.73825369       -2.73553098       -1.69731731
 C           -3.04886357        0.52203999       -1.04948410
 C           -2.92526214       -0.71441017       -1.67116832
 C           -2.72668744        2.93976360       -1.25850777
 C           -1.75865267        3.63302780       -2.08996068
 C           -3.00275917        1.65467422       -1.85766031
 C           -1.53522808        2.82969861       -3.27965262
 C           -2.28631509        1.58866661       -3.12423422
 C            0.84302849        3.40872179       -3.12595738
 C            1.95941849        2.47883368       -3.16528699
 C           -0.26799532        2.80419029       -3.84563561
 C            1.67598623        0.02626651       -3.46309555
 C            1.58530206        1.36735173       -4.00687060
 C            0.21088381        1.57303961       -4.44108875
 C            0.06340955       -1.74039059       -3.04210775
 C           -1.29902040       -1.93579439       -2.83003662
 C           -2.19788793       -0.79951945       -2.92987842
 C           -1.74322996        0.36960088       -3.53472675
 C            0.46322274       -0.67226706       -3.83150116
 C           -0.51647685        0.33936227       -4.19777938
