   70
C70 / DATE: 7/ 1/2024 / Origin: Program Fullerene / C70 from database
 C            1.55919847       -0.03964556        4.71605790
 C            0.73760695       -1.20897909        4.48456647
 C            1.32664588       -1.97121664        3.39660838
 C            2.64142945       -0.06546622        3.74883812
 C            2.43508657       -1.19424818        2.86824535
 C            2.70746549        1.24654044        3.14716337
 C            0.74079666        1.12479812        4.42143165
 C            1.49391198        1.95855680        3.52212425
 C           -0.62882030       -0.75263927        4.32458122
 C           -0.55449661        0.65892174        3.98052386
 C           -1.47530056       -1.55322592        3.58302839
 C            0.46417421       -2.59767330        2.50492623
 C           -0.89046831       -2.65577248        2.83781765
 C            0.82998989       -2.68474574        1.16091335
 C            2.51310858       -0.97575579        1.49753365
 C            1.75229906       -1.77105716        0.63523194
 C            3.11424340        1.35605885        1.82058217
 C            3.10086072        0.20306070        1.02011553
 C            2.86775680        2.58762342        1.21850928
 C            0.82652805        2.63332563        2.51140531
 C            1.65965086        3.28866907        1.61862701
 C           -1.04955838        1.08966747        2.74431646
 C           -0.39155981        2.10689485        2.03317006
 C           -2.38378479       -0.91194475        2.65901693
 C           -2.02948452        0.32102600        2.10863397
 C           -1.86007505       -3.02575443        1.82031621
 C           -2.86275541       -1.96704163        1.78678622
 C            0.01165492       -3.40730070        0.29728747
 C           -1.39664698       -3.56237392        0.62770046
 C            0.10771181       -3.18414983       -1.13297168
 C            1.86390592       -1.59726110       -0.74815373
 C            0.91593882       -2.15522060       -1.60284673
 C            3.34331034        0.31617711       -0.34597945
 C            2.74867355       -0.65408534       -1.24898402
 C            3.01661199        2.74052191       -0.21567915
 C            3.27667341        1.61985167       -0.98845413
 C            1.08708757        3.90186326        0.44946351
 C            2.00616287        3.68205077       -0.65584995
 C           -0.83073582        2.42474971        0.73685832
 C           -0.22094581        3.45397374        0.03208362
 C           -2.41144246        0.61531915        0.79703802
 C           -1.69479881        1.55950865        0.06174538
 C           -3.43043035       -1.60583461        0.57747596
 C           -3.31585765       -0.22180869        0.15191414
 C           -2.16118590       -3.35571144       -0.59017815
 C           -1.21789654       -3.37176837       -1.69679810
 C           -3.20556633       -2.43661207       -0.59258375
 C           -1.53622979       -2.71563933       -2.87587682
 C            0.62644718       -1.54698304       -2.83133497
 C           -0.49105036       -1.97146976       -3.55502219
 C            2.42336519        0.02414672       -2.48901880
 C            2.61146510        1.45376434       -2.27533390
 C            1.33453011       -0.40588892       -3.23846935
 C            1.20590905        3.35751315       -1.81698807
 C           -0.19251108        3.39126312       -1.41097827
 C            1.61793096        2.34930352       -2.68610788
 C           -1.85962126        1.65711738       -1.33623395
 C           -1.07329222        2.55454976       -2.07669225
 C           -3.39954821       -0.20622101       -1.29266778
 C           -3.40292644       -1.59074010       -1.75425724
 C           -2.74545938       -1.90378705       -2.93596933
 C           -2.69230618        0.74909600       -2.01354924
 C           -1.16767940       -1.04200516       -4.43410583
 C           -2.49268569       -0.82933444       -3.87633809
 C           -2.52813866        0.53502610       -3.38304368
 C            0.72251051        0.53476128       -4.06301446
 C            0.68854439        1.91681684       -3.62599656
 C           -0.70992095        2.21598654       -3.37272659
 C           -0.57787099        0.26060432       -4.64195677
 C           -1.49813570        1.25025352       -4.09847695
