   70
C70 / DATE: 7/ 1/2024 / Origin: Program Fullerene / C70 from database
 C            1.28728631       -0.13466922        4.37111114
 C            2.42853984       -0.41581571        3.51551515
 C            2.38380597       -1.82441544        3.17739567
 C            0.43740230       -1.31308289        4.38302539
 C            1.14336701       -2.37357680        3.70641184
 C           -0.86398316       -0.92278780        3.88160432
 C            0.45529235        1.01777107        4.06306156
 C           -0.87142552        0.52542363        3.73341070
 C            1.00030701        2.03349832        3.29590970
 C            2.75910268        0.50720622        2.52832317
 C            2.29488182        1.81219663        2.67590136
 C            3.12155296        0.05358021        1.25439220
 C            2.47635932       -2.20362826        1.78048312
 C            2.73137768       -1.22132184        0.83386578
 C            0.47577235       -3.05931153        2.62068627
 C            1.42054275       -3.16186775        1.52115275
 C           -1.51388672       -1.69507742        2.91758370
 C           -0.86234258       -2.79298971        2.32621351
 C           -2.60516924       -1.10801839        2.28017882
 C           -1.58984524        1.08209853        2.67521984
 C           -2.65049578        0.34204463        2.17263910
 C            0.16891518        2.68917880        2.30285654
 C           -1.00983411        2.08021777        1.88118317
 C            2.39951430        2.73549113        1.56502104
 C            1.06223438        3.26288539        1.31460457
 C            3.52220324        0.97938381        0.29528415
 C            3.19758753        2.38471246        0.48776465
 C            3.31184484        0.66656401       -1.10724404
 C            2.28976318       -1.41491535       -0.47731781
 C            2.53734046       -0.43620010       -1.44129654
 C            0.91479664       -3.27465235        0.23256341
 C            1.49783591       -2.52627562       -0.79348979
 C           -1.35678284       -3.34005584        1.14277692
 C           -0.40769458       -3.68821390        0.09769427
 C           -3.13409800       -1.66591470        1.04950162
 C           -2.53078618       -2.77720797        0.49874824
 C           -3.21106107        0.67732450        0.88385098
 C           -3.51739775       -0.56235766        0.18708540
 C           -1.47638312        2.31490226        0.57786052
 C           -2.68173356        1.73117128        0.15540551
 C            0.61786215        3.40355879        0.00607408
 C           -0.70798790        3.09596188       -0.30668484
 C            2.88435991        2.94876230       -0.80985812
 C            3.08396674        1.91274508       -1.80928379
 C            1.55881647        3.49707932       -1.02034909
 C            1.97569294        1.98777474       -2.74557377
 C            1.17498218        3.14242805       -2.37407939
 C            1.77602532       -0.40956003       -2.60851989
 C            1.32630748        0.81447340       -3.12284432
 C            1.01286142       -2.67263255       -2.09303438
 C            1.20332276       -1.59409485       -3.04804028
 C           -1.07796767       -3.54490028       -1.18028918
 C           -2.32782950       -2.83649031       -0.93903464
 C           -0.32242301       -3.21595082       -2.29446357
 C           -3.29947837       -0.62651475       -1.18909284
 C           -2.67286437       -1.75028473       -1.74680293
 C           -3.06650600        1.81242884       -1.17701587
 C           -3.33480820        0.57611657       -1.89702849
 C           -1.13205269        3.29807332       -1.61825932
 C           -0.17051454        3.13989185       -2.69498693
 C           -2.37422098        2.71124694       -2.06658448
 C            0.05434089        0.90764799       -3.70041897
 C           -2.71356059        0.67928530       -3.20657801
 C           -0.67775912        2.08445725       -3.55274665
 C           -2.10467429        1.99444899       -3.30364239
 C            0.02864450       -1.53306163       -3.89204020
 C           -0.95644564       -2.45471496       -3.35287590
 C           -2.15078694       -1.68994556       -3.03911697
 C           -0.62033495       -0.25114122       -4.07556331
 C           -2.02167457       -0.41038335       -3.70820348
