   70
C70 / DATE: 7/ 1/2024 / Origin: Program Fullerene / C70 from database
 C            1.50401005       -0.10879332        5.05154356
 C            0.63582832       -1.26534996        5.17220352
 C            1.19359528       -2.32341986        4.35148067
 C            2.56629464       -0.44131543        4.11693202
 C            2.35442621       -1.79520919        3.65173454
 C            2.62587349        0.61336122        3.12747623
 C            0.73003773        0.96567855        4.45658508
 C            1.50859407        1.51168303        3.36536035
 C           -0.65369006       -0.91656323        4.60137468
 C           -0.59081178        0.46060909        4.14692698
 C            0.11141243       -2.87700666        3.55865209
 C           -1.00165051       -1.94043419        3.63124074
 C            0.43247311       -3.41672861        2.32312591
 C            2.48080082       -2.05910606        2.28994841
 C            1.73466836       -3.10868760        1.75265542
 C            2.90917171        0.28143459        1.80695462
 C            2.97978794       -1.06706361        1.43471827
 C            2.60435119        1.22823387        0.83059962
 C            0.83684843        1.99457640        2.24937366
 C            1.56595622        2.13189405        1.08091402
 C           -1.12560680        0.76391192        2.90014288
 C           -0.53418653        1.76687419        2.12710345
 C           -1.62659555       -1.54643912        2.44980375
 C           -1.90772560       -0.19149234        2.25478308
 C           -0.52965475       -3.30911417        1.24160413
 C           -1.57012233       -2.38766889        1.33664847
 C            1.62090970       -3.25179574        0.31128924
 C            0.20929345       -3.39067900       -0.00498672
 C            3.17061361       -1.37734537        0.08850268
 C            2.41710299       -2.46985927       -0.50510146
 C            3.02266604        1.00640934       -0.48162940
 C            3.22877379       -0.30584346       -0.89369837
 C            2.70876155        1.95353102       -1.45146467
 C            0.96955929        2.78564315        0.01547969
 C            1.74870948        2.98334440       -1.11157930
 C           -1.16390031        2.12004545        0.92985818
 C           -0.42667810        2.73998020       -0.09053789
 C           -2.57163851        0.18817729        1.09527273
 C           -2.35504654        1.47627849        0.60768857
 C           -2.19914569       -1.97536964        0.16181525
 C           -2.96068311       -0.81042462        0.20770264
 C           -0.32236204       -2.74449190       -1.11398141
 C           -1.66326026       -2.38292701       -1.06429604
 C            1.88030496       -2.00177031       -1.77095030
 C            2.56780832       -0.77403025       -2.10538016
 C            0.51795101       -2.09282313       -2.02430642
 C            2.34213027        1.48550069       -2.77502984
 C            1.93479070        0.16110207       -2.91609512
 C            1.12948938        3.43096799       -2.33764906
 C            1.58786896        2.55051685       -3.40328928
 C           -1.06513059        3.08429770       -1.29466905
 C           -0.31326028        3.47903545       -2.40209867
 C           -3.07179462        1.90501363       -0.49900047
 C           -2.39541282        2.71180018       -1.49775871
 C           -3.72677595       -0.46351601       -0.89877434
 C           -3.91199129        0.94564222       -1.19185504
 C           -2.26314833       -1.95567319       -2.24007895
 C           -3.45960083       -1.14226111       -2.15138889
 C           -0.04388122       -1.25679030       -2.99194388
 C            0.65868126       -0.12317143       -3.42993064
 C           -1.40766181       -1.38272359       -3.26326708
 C            0.43957715        2.20091502       -4.20799431
 C           -0.68301743        2.98040470       -3.71472105
 C            0.01289104        0.81617958       -4.23866371
 C           -2.81571520        2.24168382       -2.81313660
 C           -3.73616558        1.13818598       -2.62121584
 C           -3.40548829       -0.14603880       -3.20700699
 C           -2.13443229       -0.29449378       -3.89737873
 C           -1.86867441        2.15487102       -3.82525899
 C           -1.43710359        0.83863696       -4.29137780
