   70
C70 / DATE: 7/ 1/2024 / Origin: Program Fullerene / C70 from database
 C            1.51396649        0.10353843        4.91202884
 C            0.75710750       -1.11557516        4.69126368
 C            1.63773390       -2.05717281        4.04186533
 C            2.71570308        0.02513542        4.09807892
 C            2.85822473       -1.34796730        3.67806788
 C            2.63195397        1.05599595        3.07770948
 C            0.71923018        1.20743492        4.41007803
 C            1.51213026        1.91401146        3.42480488
 C           -0.48038465       -0.75671772        4.02451193
 C           -0.56755866        0.69097433        3.98177597
 C           -0.90212021       -1.46649011        2.90689968
 C            1.16384271       -2.73634738        2.85135997
 C           -0.12172206       -2.50732142        2.37596105
 C            3.10244703       -1.61300504        2.27664225
 C            2.24532533       -2.72045621        1.89336867
 C            2.83533469        0.73210911        1.73058705
 C            3.25897566       -0.55970706        1.37624826
 C            2.31386376        1.59806077        0.75535364
 C            0.83326514        2.52804275        2.38729505
 C            1.49012991        2.65015457        1.16932509
 C           -1.15617618        1.28983073        2.86976742
 C           -0.56001609        2.44598262        2.37234684
 C           -1.88047930       -0.88383044        2.10594370
 C           -1.92623836        0.51123419        1.99640423
 C           -2.47642191       -1.67190328        1.13371687
 C           -0.42449264       -2.97979936        1.09944135
 C           -1.72852915       -2.81221983        0.64342382
 C            1.93326599       -2.86076983        0.54723720
 C            0.62059311       -3.18409987        0.18433846
 C            3.31871101       -0.90916846        0.03338038
 C            2.73407851       -2.17888517       -0.36632406
 C            2.37603559        1.25659896       -0.60141679
 C            2.96944515        0.06367473       -0.98072801
 C            1.60025206        1.94636191       -1.53387564
 C            0.92618981        3.49950388        0.22658339
 C            1.05364917        3.17549531       -1.18023684
 C           -1.23781376        3.16061442        1.39708017
 C           -0.44431949        3.92252824        0.45160420
 C           -2.45422811        1.10922104        0.84194711
 C           -2.27219528        2.47278158        0.64238750
 C           -3.10813634       -1.03863019       -0.00441653
 C           -2.90132846        0.31925844       -0.21845868
 C           -2.04611855       -2.98496271       -0.76180345
 C           -3.02355199       -1.96679107       -1.11780130
 C            0.33762619       -3.38421283       -1.16645631
 C           -1.03190639       -3.30884277       -1.64896993
 C            2.30665493       -2.05611373       -1.74685511
 C            2.43071332       -0.65663744       -2.12270997
 C            1.19599993       -2.76856898       -2.16667458
 C            1.16814958        1.30238731       -2.69989585
 C            1.42947054       -0.05956877       -2.88291154
 C            0.27017938        1.95150062       -3.54191249
 C           -0.14573106        3.65421260       -1.85232774
 C           -1.13419305        3.90796822       -0.82134310
 C           -2.26290805        2.99771669       -0.71158641
 C           -0.57019796        2.99671212       -2.99324395
 C           -2.93574687        0.83098395       -1.52359285
 C           -2.51970208        2.14493242       -1.77989023
 C           -1.91627595        2.45395857       -3.00132232
 C           -3.05748726       -1.46300083       -2.40858046
 C           -3.21125562       -0.03035594       -2.58946198
 C           -1.00633438       -2.69591812       -2.96713142
 C            0.34072935       -2.19400467       -3.18626487
 C            0.51795782       -0.86787854       -3.57620393
 C           -2.08261347       -1.92442855       -3.38838116
 C           -0.58109975        1.15962201       -4.40916199
 C           -1.96207922        1.50597860       -4.09479165
 C           -2.69826157        0.27622662       -3.90989161
 C           -0.47037646       -0.28310994       -4.36239164
 C           -1.82093544       -0.81628199       -4.29181389
