   70
C70 / DATE: 7/ 1/2024 / Origin: Program Fullerene / C70 from database
 C            1.51475839        0.37041792        5.26464517
 C            0.70803830       -0.83425411        5.23421108
 C            1.48573532       -1.85479935        4.55972100
 C            2.62473144        0.18211797        4.34189714
 C            2.63005646       -1.20331433        3.93749490
 C            2.51680604        1.20120519        3.31614204
 C            0.70304360        1.45532820        4.74687879
 C            1.49424716        2.14019277        3.74887287
 C           -0.60318341       -0.48840767        4.70399745
 C           -0.58182139        0.91582146        4.33279246
 C           -1.25239045       -1.38483706        3.87110593
 C            0.83412522       -2.65612165        3.54215035
 C           -0.54413653       -2.56678718        3.39163618
 C            2.59097678       -1.51284851        2.52150630
 C            1.66476147       -2.61283298        2.34813623
 C            2.57763647        0.85388289        1.96103082
 C            2.58900305       -0.49349717        1.57032589
 C            2.20182393        1.82075368        1.02539440
 C            0.80910021        2.82401520        2.76441054
 C            1.40031754        2.87744574        1.44776814
 C           -1.10564676        1.32783679        3.10190143
 C           -0.59427298        2.49339996        2.54500592
 C           -2.03135954       -0.86680274        2.75880486
 C           -1.77774666        0.41174404        2.27910582
 C           -1.10812692       -2.89985163        2.10150913
 C           -2.17215233       -1.95006750        1.81648868
 C            1.05961880       -2.77002821        1.10597435
 C           -0.25401237       -3.24118010        1.06001324
 C            2.21540423       -0.82223144        0.26674447
 C            1.54738520       -2.02527313        0.02484139
 C            2.18954256        1.50391242       -0.33270998
 C            2.22790027        0.16201008       -0.71556874
 C            1.62486561        2.42920209       -1.21047646
 C            0.33647887        3.31358919        0.57536272
 C           -0.89177679        2.81446838        1.16432415
 C            0.49571232        3.12256163       -0.77980688
 C           -1.98074198        0.68448348        0.91306457
 C           -1.67182678        1.95053916        0.40165285
 C           -2.42968367       -1.66904840        0.48278243
 C           -2.40003667       -0.33856171        0.03912958
 C           -0.84253106       -3.38597941       -0.18381605
 C           -2.08496550       -2.66804695       -0.41426079
 C            1.05078201       -2.29128640       -1.25183095
 C           -0.03265698       -3.15649619       -1.35902327
 C            1.93625865       -0.18288417       -2.03768441
 C            1.32295341       -1.41221784       -2.30655537
 C            1.75108483        2.19605119       -2.57464550
 C            1.94870525        0.82345944       -3.00486125
 C            0.75863648        2.78950139       -3.45883406
 C           -0.66398410        2.96659744       -1.51915060
 C           -1.66325765        2.14612881       -0.98035339
 C           -0.54182235        3.09483729       -2.89256885
 C           -2.52669438       -0.07375096       -1.33804977
 C           -2.31734592        1.23115594       -1.80192516
 C           -2.16431571       -2.39807625       -1.82682386
 C           -0.97508170       -2.97117827       -2.43976960
 C           -2.58510804       -1.14602736       -2.24866397
 C            0.72363448       -1.64291886       -3.55116930
 C           -0.51919247       -2.39837864       -3.61126175
 C            1.24240740        0.64372176       -4.26368351
 C            0.55547561        1.88945844       -4.57609277
 C            0.62898782       -0.57175918       -4.52969360
 C           -1.55159080        2.50450930       -3.74293837
 C           -2.44819352        1.52725413       -3.15806601
 C           -0.86911127        1.87542436       -4.86306247
 C           -2.50622250       -0.90682308       -3.61698055
 C           -1.46697347       -1.59818484       -4.36306379
 C           -0.71429974       -0.60214418       -5.09541591
 C           -2.57015013        0.44775492       -4.11025503
 C           -1.51858262        0.60611480       -5.10776131
