   70
C70 / DATE: 7/ 1/2024 / Origin: Program Fullerene / C70 from database
 C            0.92731185       -0.03989447        4.89197954
 C            2.26601281       -0.39487183        4.48167178
 C            2.22987110       -1.79519324        4.08911992
 C            0.10520606       -1.22905050        4.72732334
 C            0.83898657       -2.11504983        3.84761465
 C           -1.20310151       -0.78372609        4.31481487
 C            0.24829864        1.03054596        4.19023668
 C           -1.14884972        0.66477322        4.16823196
 C            0.80022369        1.56225374        3.02718800
 C            2.86464881        0.32567652        3.37701394
 C            2.08826854        1.19124136        2.61012397
 C            3.16563640       -1.95331223        3.00407819
 C            3.69740809       -0.63338604        2.68637035
 C            2.68536463       -2.50570804        1.75678130
 C            0.39238615       -2.30655647        2.53262546
 C            1.31093122       -2.61354339        1.51738204
 C           -1.74635358       -1.29875231        3.07797924
 C           -0.94540076       -2.04243269        2.20562484
 C           -1.92755762        1.00396802        2.99006172
 C           -2.53860694       -0.22287079        2.52235477
 C           -0.03998937        2.22765628        2.13023483
 C           -1.38843008        1.85843419        2.03312251
 C            0.54571190        2.92790963        1.08465488
 C            2.49404880        1.48054812        1.30478875
 C            1.86390413        2.51970853        0.63538817
 C            3.78768913       -0.55442265        1.23819325
 C            3.51218919       -1.89098724        0.74315649
 C            3.21348324        0.52933064        0.57122976
 C            3.11260259       -2.01855516       -0.56957341
 C            0.87943728       -2.69557795        0.18912463
 C            1.82925921       -2.64469247       -0.83164282
 C           -1.37252782       -2.14420663        0.87930016
 C           -0.46317399       -2.48606078       -0.12569369
 C           -2.86213243       -0.30728835        1.18231620
 C           -2.55503555       -1.48937300        0.52673140
 C           -2.02175882        1.90903974        0.78760000
 C           -2.88166701        0.86152006        0.42666271
 C           -0.24375708        3.25686392       -0.08714787
 C           -1.54947780        2.79306442       -0.18384829
 C            1.86498439        2.53718441       -0.81514618
 C            0.62344862        3.15839337       -1.24964547
 C            3.00335580        0.41591139       -0.80832286
 C            3.14521712       -0.83709232       -1.40533834
 C            2.36290696        1.44318947       -1.50974137
 C            1.42871389       -2.21468641       -2.16056761
 C            2.34866893       -1.16221140       -2.56771196
 C           -0.86034971       -2.40640723       -1.46689247
 C            0.07805751       -2.07507353       -2.45012522
 C           -3.05972021       -1.64983318       -0.75209348
 C           -2.21584885       -2.27658537       -1.74742966
 C           -3.37221037        0.77752812       -0.87625924
 C           -3.66461325       -0.49156852       -1.38704261
 C           -2.15957209        2.82468978       -1.43240441
 C           -3.20283293        1.86432898       -1.73013951
 C            0.06144384        2.80361144       -2.47219065
 C           -1.31863494        2.93195006       -2.61593563
 C            1.93164526        1.22906918       -2.81866323
 C            1.86750723       -0.12596491       -3.34450500
 C            0.77004483        1.95336877       -3.32327068
 C           -0.29402690       -1.27492592       -3.53631577
 C            0.57450715       -0.28020164       -3.98058194
 C            0.06062049        1.05487120       -4.22677701
 C           -2.63216180       -1.77187502       -3.04470283
 C           -3.63597836       -0.74339046       -2.81603126
 C           -1.62716174       -1.21375055       -3.92309328
 C           -3.22659210        1.68534014       -3.17406114
 C           -2.00054036        2.25774048       -3.70707525
 C           -1.30123684        1.21862144       -4.43749504
 C           -3.36975878        0.35288423       -3.72294640
 C           -2.15094276        0.03786180       -4.45066877
