   70
C70 / DATE: 7/ 1/2024 / Origin: Program Fullerene / C70 from database
 C            1.35928734       -0.08684791        4.06889479
 C            2.49306484       -0.16955213        3.16522967
 C            2.39000172       -1.42830637        2.43720917
 C            0.48504569       -1.21258349        3.79452795
 C            1.12613931       -2.04549619        2.79368864
 C           -0.84225890       -0.69705332        3.51066679
 C            0.55109976        1.11355565        4.06847960
 C           -0.81217148        0.73789385        3.70731414
 C            1.09607877        2.27557659        3.54622189
 C            2.93148168        0.97295085        2.49363490
 C            2.27601123        2.19410444        2.69369615
 C            3.67312588        0.80690959        1.32431625
 C            2.83433465       -1.48111912        1.11743356
 C            3.74681079       -0.51251025        0.71959131
 C            2.07369518       -2.17207365        0.15760240
 C            0.34585776       -2.57907154        1.78274423
 C            0.95577885       -2.90156856        0.57431226
 C           -1.52765284       -1.21449381        2.41952666
 C           -1.03277625       -2.36520846        1.81348476
 C           -2.43242163       -0.40956730        1.72019646
 C           -1.55472795        1.54973767        2.85489458
 C           -2.48264361        0.97201719        1.98218848
 C            0.20352588        3.26317442        2.97171535
 C           -1.15392216        2.87074435        2.64442792
 C            2.04980799        3.06267027        1.54767825
 C            0.80946872        3.76637704        1.74718047
 C            3.47502024        1.74984041        0.23679755
 C            2.36779347        2.58031471        0.28825366
 C            4.02778605       -0.32577573       -0.68488253
 C            3.80236561        1.07986962       -0.99518996
 C            2.33642450       -2.02424986       -1.21681968
 C            3.28111025       -1.09739940       -1.65175716
 C            1.42142858       -2.50916321       -2.15705175
 C            0.23794918       -3.65284319       -0.34677337
 C            0.44043691       -3.41359623       -1.76113890
 C           -1.82978443       -3.01932405        0.89019504
 C           -1.18583778       -3.83173310       -0.12556183
 C           -3.17529211       -0.97325791        0.66774537
 C           -2.90482531       -2.27754241        0.25822839
 C           -3.83927263       -0.15316915       -0.23541156
 C           -3.18064272        1.82055362        1.12576389
 C           -3.89642889        1.27125054       -0.00280649
 C           -1.46166645        3.50953949        1.37832141
 C           -0.19030020        3.69773221        0.70569199
 C           -2.51398127        3.01297916        0.63921936
 C            1.35711249        2.44917975       -0.68580296
 C            0.07469336        2.96789575       -0.45543492
 C            2.84424245        1.12925970       -2.07393226
 C            2.90857549       -0.17280869       -2.70501624
 C            1.59362096        1.71109229       -1.85426161
 C            1.29516392       -1.85417268       -3.38384666
 C            1.87513498       -0.53352177       -3.54293338
 C           -0.00074019       -1.80357594       -4.03336558
 C           -0.86857360       -3.39869899       -2.40640073
 C           -1.87208311       -3.60421711       -1.38421279
 C           -2.87446970       -2.57584878       -1.16836853
 C           -1.12326576       -2.47124207       -3.40391404
 C           -3.60957751       -0.34964701       -1.65690294
 C           -3.00926123       -1.53291003       -2.08635316
 C           -2.17710939       -1.48227876       -3.21143891
 C           -3.38388594        1.93239299       -1.19576529
 C           -2.29999184        2.78838166       -0.77554421
 C           -1.00480434        2.52735444       -1.22856379
 C           -3.10525940        0.91161850       -2.17259808
 C            0.51920895        1.30700812       -2.65391571
 C            0.75703497        0.38146764       -3.67269363
 C           -0.34141894       -0.39756362       -4.19748565
 C           -1.65107071       -0.19279851       -3.63506634
 C           -0.79426290        1.60248988       -2.26120815
 C           -1.88333721        0.90685788       -2.82465449
