   70
C70 / DATE: 7/ 1/2024 / Origin: Program Fullerene / C70 from database
 C            1.64595831       -0.01101137        5.00314791
 C            0.78588085       -1.16428244        5.18289422
 C            1.29472942       -2.22007284        4.33177081
 C            2.60924867       -0.32369726        3.95712266
 C            2.35194261       -1.66823424        3.49800442
 C            2.56378734        0.74650916        2.98699632
 C            0.82037664        1.07314243        4.51005108
 C            1.53158313        1.67655710        3.40576512
 C           -0.53816178       -0.82033596        4.68704496
 C           -0.50630586        0.55614371        4.23916236
 C            0.15447273       -2.81255754        3.66432409
 C           -0.92888377       -1.84035099        3.73450330
 C            0.38814393       -3.41936568        2.44459865
 C            2.30437528       -1.92433221        2.12832952
 C            1.59756868       -3.05105600        1.72034632
 C            2.63752010        0.44475108        1.62753025
 C            2.52437149       -0.88843860        1.20360940
 C            2.28966571        1.46163643        0.73146932
 C            0.78910940        2.25434995        2.39297759
 C            1.45013132        2.47782000        1.19810721
 C           -1.08077838        0.87802317        3.01316704
 C           -0.58053471        1.97908347        2.32004784
 C           -1.55929454       -1.45329148        2.55080965
 C           -1.78435683       -0.09380289        2.29567946
 C           -0.67266590       -3.40181443        1.46253127
 C           -1.59832198       -2.35968289        1.49012237
 C            1.32718263       -3.25527228        0.31125890
 C           -0.03899197       -3.73779326        0.20548560
 C            2.38225615       -1.14130774       -0.16613567
 C            1.77374911       -2.32250399       -0.61345869
 C            2.38325461        1.21699740       -0.64101289
 C            2.58131731       -0.09899203       -1.07094347
 C            1.98298328        2.20971329       -1.54704031
 C            0.80880800        3.30201633        0.29490718
 C            1.17977550        3.25087902       -1.09902714
 C           -1.27589560        2.42576451        1.19641362
 C           -0.63746169        3.34668636        0.36529485
 C           -2.37856606        0.27939022        1.08829480
 C           -2.27474314        1.61031965        0.66220673
 C           -2.22947218       -1.99369046        0.30271473
 C           -2.77039417       -0.71490563        0.18602303
 C           -0.73813820       -3.47869285       -0.95855926
 C           -1.98028287       -2.73806673       -0.85232524
 C            1.24763561       -2.37927437       -1.90608734
 C           -0.02166012       -2.92512623       -2.09476077
 C            2.56054528       -0.39921654       -2.42755154
 C            1.73596160       -1.50550773       -2.86698162
 C            2.07041673        1.98789789       -2.91762959
 C            2.40922909        0.66744095       -3.39601498
 C            1.01944451        2.50339769       -3.78184571
 C            0.00933783        3.63929861       -1.87093885
 C           -1.13864359        3.59479140       -0.97614247
 C           -0.11285981        3.18741376       -3.17777627
 C           -2.94886441        2.02521607       -0.48448807
 C           -2.31135193        2.97501004       -1.38240063
 C           -3.41410594       -0.36303372       -0.99789461
 C           -3.62334437        1.03782116       -1.29958583
 C           -2.23611987       -2.15272663       -2.15679556
 C           -0.99009320       -2.20063381       -2.90597612
 C           -3.02456050       -1.02131892       -2.23352519
 C            0.81385340       -0.97660333       -3.85773692
 C            1.38055129        0.26273902       -4.34429295
 C            0.50167145        1.38824016       -4.55705754
 C           -0.55783872       -1.08914742       -3.62677068
 C           -1.31966296        2.48168395       -3.58276400
 C           -2.42613819        2.46152754       -2.74016546
 C           -3.23372421        1.25655063       -2.68470118
 C           -2.67147367        0.01371676       -3.18505220
 C           -0.90258982        1.24609978       -4.22842679
 C           -1.40055803        0.02751182       -3.76084708
