   70
C70 / DATE: 7/ 1/2024 / Origin: Program Fullerene / C70 from database
 C            1.33909961       -0.10152401        4.43593001
 C            2.55851512       -0.47680886        3.76556691
 C            2.53420014       -1.91802339        3.56903838
 C            0.49591319       -1.28630621        4.53568465
 C            1.21347919       -2.39903868        3.94593086
 C           -0.80853766       -0.92959274        4.00463526
 C            0.52739019        0.95019839        3.85840973
 C           -0.85032505        0.51816179        3.99101862
 C            0.91729167        1.58471158        2.67388627
 C            2.86411314        0.13745139        2.48952534
 C            2.04155459        1.13967182        1.96320236
 C            3.03867110       -2.19106798        2.23153457
 C            3.32519544       -0.91373371        1.60292106
 C            2.45406636       -3.19807174        1.47720581
 C            0.53537342       -3.25349192        3.08604935
 C            1.26154430       -3.85645575        1.98216321
 C           -1.32060058       -1.63189963        2.91336193
 C           -0.78571113       -2.87703975        2.59373068
 C           -2.12996316       -0.96492053        1.98545498
 C           -1.79260887        1.13828417        3.19712411
 C           -2.57331908        0.32090086        2.28373709
 C           -0.03346998        2.36779571        2.01846741
 C           -1.36722163        2.28423409        2.42541564
 C            0.25336037        2.91236298        0.76649698
 C            2.14984871        1.42438756        0.59672326
 C            1.29701047        2.36620129        0.00782282
 C            3.10946595       -0.74270758        0.24470006
 C            2.88904360        0.55241783       -0.20857747
 C            2.28004659       -3.00320381        0.04723752
 C            2.66553130       -1.80842539       -0.54675982
 C            0.33694428       -4.01352905        0.87484213
 C           -0.91397698       -3.37468657        1.23807807
 C            1.00228893       -3.56868787       -0.33814410
 C           -2.22604965       -1.43439964        0.67020052
 C           -1.53373301       -2.58426214        0.28253679
 C           -2.83905036       -0.65354263       -0.31784687
 C           -3.01297896        1.19756484        1.20828614
 C           -2.41457798        2.50152098        1.45169484
 C           -3.06535757        0.71034543       -0.09376078
 C           -0.74013376        3.66926258        0.14641351
 C           -2.12806904        3.30838838        0.36947469
 C           -0.61469362        4.01517574       -1.25188120
 C            1.43452428        2.67453358       -1.35638401
 C            0.47429023        3.44578842       -2.00674179
 C            2.94818007        0.76298791       -1.57440005
 C            2.30362522        1.92567027       -2.14137858
 C            2.16382871       -1.51672846       -1.81499718
 C            2.64777993       -0.36849666       -2.42803774
 C            0.24840759       -2.88940507       -1.29045951
 C           -1.10897992       -2.69895028       -1.03768824
 C            0.89679855       -2.01168282       -2.16609913
 C           -2.89501789       -1.15998275       -1.61425000
 C           -1.89125533       -2.12459423       -2.02262988
 C           -3.10485981       -0.25656996       -2.72622455
 C           -3.04249828        1.62273760       -1.15930789
 C           -2.66724580        2.94385594       -0.92396357
 C           -1.85603192        3.63233951       -1.91117644
 C           -3.07536946        1.16626714       -2.47370522
 C           -0.06839365        2.98811276       -3.27826339
 C           -1.51568362        2.94192507       -3.14298742
 C           -2.19906728        1.77485028       -3.46607217
 C            1.90676571        1.57493611       -3.49552891
 C            2.00399301        0.12971610       -3.62086030
 C            0.59263080        1.97649263       -3.96337542
 C            0.14209659       -1.39722992       -3.17745123
 C           -1.23684105       -1.59341713       -3.20215779
 C           -2.09871760       -0.55278547       -3.73541687
 C           -1.50627815        0.70154207       -4.16282048
 C            0.69220649       -0.37573303       -3.95119959
 C           -0.12845699        0.76620253       -4.33395395
