   70
C70 / DATE: 7/ 1/2024 / Origin: Program Fullerene / C70 from database
 C            1.17049698        0.04723090        4.32748539
 C            2.46535645       -0.21593031        3.74731986
 C            2.52685007       -1.64047437        3.49037848
 C            0.36489665       -1.16231459        4.18436907
 C            1.16144588       -2.13070405        3.47585460
 C           -0.90195534       -0.76239362        3.61772811
 C            0.37993587        1.13267710        3.78825096
 C           -0.98832170        0.66685335        3.83922796
 C            0.80327378        1.80915314        2.64096419
 C            2.81708026        0.45529157        2.51270246
 C            1.92624139        1.35681471        1.93653720
 C            3.31764440       -1.83332659        2.29431745
 C            3.46773917       -0.52492599        1.65990748
 C            2.98833493       -2.91138765        1.49091881
 C            0.68055429       -2.69601867        2.29751278
 C            1.60546406       -3.38056072        1.51768425
 C           -1.29975139       -1.26921374        2.37964682
 C           -0.48569993       -2.18810477        1.69439881
 C           -2.30665365       -0.58713869        1.69212646
 C           -1.92505472        1.37245162        3.11700940
 C           -2.76317088        0.63565505        2.19395869
 C           -0.13646479        2.60106214        1.97403979
 C           -1.47291706        2.53549621        2.37965816
 C            0.16786252        3.13711727        0.71875047
 C            2.01624504        1.60335146        0.57124531
 C            1.27683274        2.64495316        0.01772948
 C            3.33180319       -0.41541769        0.27369496
 C            2.66216809        0.68603020       -0.26898508
 C            3.39390870       -2.85804441        0.10535181
 C            3.51200069       -1.55384761       -0.51614869
 C            1.24854067       -3.78986547        0.17993595
 C            2.42478960       -3.61785260       -0.65594939
 C           -0.82131093       -2.56333180        0.38065575
 C            0.01664210       -3.42793542       -0.34685912
 C           -2.64584636       -0.96704069        0.39552607
 C           -1.96244530       -2.01249795       -0.22680487
 C           -3.51446719       -0.16813944       -0.35461914
 C           -3.32489604        1.62383576        1.28879763
 C           -2.52701860        2.83654934        1.42789079
 C           -3.74227230        1.21223478        0.03492275
 C           -0.81111830        3.89001111        0.06401841
 C           -2.20829635        3.58636332        0.30743247
 C           -0.68687715        4.19241899       -1.34714669
 C            1.45127962        2.92390968       -1.33622601
 C            0.46653949        3.69997382       -2.06093666
 C            2.38238550        0.69544775       -1.63598982
 C            1.86492249        1.84638601       -2.21037798
 C            2.85926781       -1.63434321       -1.81524826
 C            2.25803173       -2.95578933       -1.93551061
 C            2.17427560       -0.51789943       -2.28346260
 C           -0.10195699       -3.49584809       -1.73188407
 C            1.02124573       -3.06193523       -2.54689581
 C           -2.26050978       -2.29889750       -1.56052199
 C           -1.30117172       -3.01234886       -2.36745110
 C           -3.43595283       -0.18875288       -1.80301459
 C           -2.78134205       -1.24347676       -2.40730934
 C           -3.48060907        2.04892804       -1.12799126
 C           -2.80767676        3.25547652       -0.97593987
 C           -1.87351967        3.67113212       -2.00890502
 C           -3.11631774        1.16483712       -2.22443072
 C           -0.00868045        2.87483556       -3.16174609
 C            0.83024309        1.69486121       -3.21609723
 C           -1.43383527        2.69704577       -2.99397906
 C           -1.94595354        1.40464277       -2.94572066
 C            1.03898430       -0.67418089       -3.08735784
 C            0.53904500       -1.94720247       -3.33583484
 C           -0.89306796       -2.11832547       -3.44447576
 C           -1.73762269       -0.94278650       -3.36997532
 C            0.24523247        0.44181686       -3.36453684
 C           -1.15480585        0.32340905       -3.34961667
