   70
C70 / DATE: 7/ 1/2024 / Origin: Program Fullerene / C70 from database
 C            1.58307181       -0.00240856        4.42975760
 C            0.75927168       -1.16298405        4.13477096
 C            1.46926695       -1.97050168        3.17216394
 C            2.69097370       -0.00411068        3.49418113
 C            2.73712698       -1.31390602        2.88070559
 C            2.54772000        1.13783880        2.61475430
 C            0.78513017        1.17534233        4.15730710
 C            1.39581378        1.89880152        3.05739531
 C           -0.56260723       -0.69247797        3.78862589
 C           -0.58907965        0.74501530        3.98909573
 C           -1.20112594       -1.20366470        2.66199152
 C            0.77181888       -2.54510610        2.11284044
 C           -0.51743924       -2.07868478        1.79571215
 C            1.54982685       -3.11925683        1.11062458
 C            3.22006464       -1.41436810        1.58182381
 C            2.87859042       -2.57115531        0.89219170
 C            2.73611686        0.92610677        1.25730817
 C            3.39943232       -0.23292718        0.85002765
 C            1.96106197        1.63048280        0.33043941
 C            0.54099327        2.44842556        2.11174812
 C            0.87827080        2.40021318        0.75509562
 C           -1.39086162        1.48695485        3.13511559
 C           -0.80291948        2.55373785        2.45239470
 C           -2.31914293       -0.51152914        2.19209158
 C           -2.46572948        0.83911705        2.53086921
 C           -3.03868621       -1.04838222        1.13271620
 C           -1.07940591       -2.39109205        0.54860951
 C           -2.38106070       -2.00188455        0.26210864
 C            0.97143175       -3.38013403       -0.19080106
 C           -0.26607326       -2.83274494       -0.49376050
 C            3.18570178       -2.67482807       -0.52052926
 C            2.04579919       -3.31663934       -1.16535435
 C            3.80908528       -0.31192012       -0.47501460
 C            3.82366971       -1.60575847       -1.13600388
 C            2.14967228        1.39645629       -1.03047686
 C            3.25734992        0.64580960       -1.41658759
 C            1.08929146        1.61108202       -1.92374931
 C           -0.04639001        2.86304296       -0.18537081
 C           -0.03267772        2.33828131       -1.49006540
 C           -1.61013741        3.33222968        1.64054957
 C           -1.16075596        3.56583173        0.27829088
 C           -3.40175582        1.63201424        1.87254609
 C           -3.02169357        3.00251287        1.58306874
 C           -3.87442505       -0.19165900        0.30992506
 C           -4.10717432        1.11357776        0.71177302
 C           -2.72709783       -1.67176417       -1.10874852
 C           -3.56079071       -0.47505421       -1.08642981
 C           -0.59283628       -2.52723747       -1.82116615
 C           -1.76630673       -1.82148588       -2.10168536
 C            1.73681416       -3.02131143       -2.48507389
 C            0.36698509       -2.67139423       -2.82755939
 C            3.62053920       -1.37396636       -2.55265487
 C            3.28545704        0.03327776       -2.72476771
 C            2.62151308       -2.15918217       -3.25159873
 C            1.04114805        0.92336922       -3.14975681
 C            0.41780124       -1.69203844       -3.90126218
 C            2.09936768        0.11027891       -3.54407364
 C            1.79241708       -1.23568054       -4.00107424
 C           -1.79037567       -0.94823532       -3.18317051
 C           -0.19540933        0.65437777       -3.71891424
 C           -0.57653225       -0.73055706       -3.94751811
 C           -1.20797365        2.32720065       -2.26419201
 C           -3.31083271        0.56769118       -1.98594153
 C           -1.35974370        1.34195319       -3.22314441
 C           -2.40816365        0.35479688       -3.02293369
 C           -2.33703391        3.65227313       -0.55651671
 C           -3.49975950        3.33986706        0.25855579
 C           -4.12657512        2.15353411       -0.29716407
 C           -2.38991645        2.81791167       -1.72879634
 C           -3.50010609        1.88662517       -1.57531874
