   70
C70 / DATE: 7/ 1/2024 / Origin: Program Fullerene / C70 from database
 C            1.22222607       -0.03610707        4.41580181
 C            2.54029870       -0.31518287        3.90182990
 C            2.54831928       -1.70205526        3.47058362
 C            0.39035082       -1.20860084        4.16853058
 C            1.16191476       -2.12174310        3.36203704
 C           -0.87266576       -0.72932094        3.65551136
 C            0.49822605        1.10078570        3.88845528
 C           -0.89031760        0.69905174        3.90357459
 C            0.97687576        1.78522291        2.76847496
 C            3.03133684        0.47423950        2.79275476
 C            2.20476271        1.42234594        2.18327979
 C            3.38619307       -1.78579997        2.28852220
 C            3.80410774       -0.42870866        1.95912068
 C            2.98382813       -2.63497762        1.26681580
 C            0.68157079       -2.51919803        2.11665564
 C            1.59601102       -3.07806449        1.23121128
 C           -1.34435255       -1.19270646        2.42795899
 C           -0.52949365       -2.00344857        1.62323945
 C           -2.40451542       -0.49712957        1.84381162
 C           -1.78994206        1.45774925        3.18525925
 C           -2.74410222        0.75761694        2.35277772
 C            0.08011415        2.59820531        2.06542368
 C           -1.28000576        2.54870601        2.37033429
 C            0.47946397        3.20625524        0.88428253
 C            2.53481840        1.87212666        0.90004133
 C            1.71773867        2.79350032        0.25857464
 C            4.02021783       -0.08266973        0.63293458
 C            3.43378298        1.14494059        0.12121857
 C            3.38166525       -2.34452343       -0.09872056
 C            3.90275330       -1.09292984       -0.40830428
 C            1.22926142       -3.26997287       -0.15406405
 C            2.38618970       -2.94305189       -0.97073383
 C           -0.91413723       -2.26099896        0.29909739
 C           -0.02957260       -2.88388367       -0.59109825
 C           -2.86535998       -0.86257836        0.57959029
 C           -2.14788203       -1.79783707       -0.16802914
 C           -3.84180126       -0.07528537       -0.03821111
 C           -3.29131065        1.75624772        1.46153747
 C           -2.26452002        2.78469280        1.32008069
 C           -3.97040177        1.32307066        0.33910698
 C           -0.49452230        3.44648412       -0.17139588
 C           -1.84323019        3.17797111        0.04792943
 C            1.47182063        2.64234390       -1.16862028
 C            0.10932033        3.05039269       -1.43460423
 C            3.14313544        0.94917802       -1.29070945
 C            3.48729399       -0.42081507       -1.63050920
 C            2.00470270        1.54547483       -1.83242325
 C            2.17324528       -2.40993366       -2.23370097
 C            2.71424203       -1.09658071       -2.56114075
 C           -0.24364900       -2.77999112       -1.96462232
 C            0.83462013       -2.47053356       -2.79504927
 C           -2.53062562       -2.07768698       -1.47953695
 C           -1.52646316       -2.52559774       -2.42696112
 C           -4.04114193       -0.15408830       -1.47437272
 C           -3.42634418       -1.17286958       -2.18284129
 C           -3.85072074        2.10825949       -0.87040116
 C           -2.65621427        2.91244205       -1.05349493
 C           -3.96344584        1.20168964       -1.99786405
 C           -0.65387850        2.34670499       -2.35610677
 C           -2.03753831        2.50383896       -2.30693735
 C           -2.91113317        1.53241998       -2.94503277
 C            1.22071651        0.84882532       -2.75967316
 C            1.67808547       -0.36633808       -3.26988360
 C            0.71715914       -1.35413214       -3.71761138
 C           -0.09634574        1.25203625       -3.02607651
 C           -1.67580526       -1.73550692       -3.63742438
 C           -2.80873418       -0.85012309       -3.45827572
 C           -2.35016402        0.51010550       -3.69308803
 C           -0.55009924       -0.93118469       -4.07534311
 C           -0.90593281        0.45923211       -3.84349641
