   70
C70 / DATE: 7/ 1/2024 / Origin: Program Fullerene / C70 from database
 C            1.29946889        0.05432734        4.88193645
 C            2.46063921       -0.12703254        4.03967090
 C            2.49405529       -1.52326202        3.63735320
 C            0.47148917       -1.13732681        4.75280860
 C            1.21924867       -2.12012429        3.99217787
 C           -0.82871423       -0.71524314        4.25887440
 C            0.45056720        1.19912689        4.63436222
 C           -0.90962904        0.70485190        4.49802784
 C            0.70836880        2.03445256        3.47113858
 C            2.59355861        0.67873533        2.83470544
 C            1.61551157        1.61772571        2.50294815
 C            2.92532695       -1.56621346        2.25033009
 C            3.10482286       -0.19696450        1.80332783
 C            2.33046754       -2.46832782        1.37028202
 C            0.54903917       -2.86015328        3.03025723
 C            1.24805004       -3.23383111        1.81401099
 C           -1.29886856       -1.23510084        3.05001779
 C           -0.79716537       -2.46171627        2.63221835
 C           -1.97786899       -0.40728785        2.13548323
 C           -1.55134893        1.51519785        3.49783114
 C           -0.58638583        2.50140467        3.04143363
 C           -2.32523119        0.89778111        2.52453043
 C           -0.75190832        2.95965390        1.74516910
 C            1.34512100        1.88497087        1.15414074
 C            0.25214294        2.69079393        0.79773715
 C            2.81556743        0.08483293        0.48223656
 C            2.07658683        1.22574192        0.16117876
 C            2.47316484       -2.23993468       -0.00190159
 C            2.85738650       -0.96317977       -0.42681751
 C            1.80530462       -3.08622065       -0.88565189
 C            0.21371916       -3.61080147        0.86991626
 C           -0.98461562       -2.88483164        1.25988263
 C            0.53808624       -3.65867878       -0.47073783
 C           -2.07929894       -0.78903221        0.77884358
 C           -1.57850537       -2.01866927        0.34719086
 C           -2.68072465        0.06095610       -0.15557268
 C           -2.84499563        1.76297370        1.57515937
 C           -2.06788286        2.96173039        1.31104476
 C           -3.24488359        1.24908727        0.28757706
 C           -2.34845463        3.37721059       -0.03334919
 C           -3.25741104        2.39200730       -0.59786137
 C            0.00037150        2.94906934       -0.56177404
 C           -1.23280946        3.48611403       -0.94188330
 C            1.85216639        1.51667725       -1.18493895
 C            0.82121829        2.38729004       -1.54817177
 C            2.86008589       -0.64079624       -1.77501634
 C            2.44851882        0.69980203       -2.14901326
 C            1.66665968       -2.71437191       -2.28556964
 C            2.29915988       -1.56686288       -2.74237496
 C           -0.44203692       -3.18785713       -1.42448993
 C           -1.39296186       -2.24982634       -1.01750610
 C            0.28166059       -2.96945734       -2.66001030
 C           -2.47162036       -0.14522992       -1.53033875
 C           -1.90718105       -1.35514098       -1.95867832
 C           -2.84973987        2.19493949       -1.96516862
 C           -1.78009524        3.14452220       -2.23566991
 C           -2.70676909        0.90124157       -2.44717958
 C            0.47405363        2.52964166       -2.89893503
 C           -0.90117088        2.84172799       -3.25809550
 C            1.89858566        0.62739958       -3.48784504
 C            1.68571607       -0.78268193       -3.80250317
 C            0.97337033        1.58021036       -3.88318730
 C           -0.31863510       -2.18810019       -3.63131387
 C           -1.57623026       -1.54454150       -3.30160330
 C            0.47645761       -1.20513965       -4.34677712
 C           -2.23286816        0.80210768       -3.75037884
 C           -1.32652400        1.83790555       -4.21694866
 C           -0.13910520        1.18602400       -4.73007852
 C           -1.74276542       -0.46125380       -4.24128592
 C           -0.45131222       -0.22304285       -4.87517510
