   70
C70 / DATE: 7/ 1/2024 / Origin: Program Fullerene / C70 from database
 C            1.14683774        0.07707281        4.40192294
 C            2.40400309       -0.16835532        3.73505817
 C            2.36205646       -1.53323331        3.24100834
 C            0.31055700       -1.09856291        4.20542360
 C            0.98301875       -1.96161539        3.26195499
 C           -1.01590439       -0.63774455        3.87771026
 C            0.36820241        1.23050475        4.00167951
 C           -1.02140578        0.81630690        3.93993191
 C            0.84486310        2.08664620        3.01639705
 C            2.77585744        0.68191229        2.61821399
 C            1.90837659        1.67941399        2.19361878
 C            3.03918467       -1.54571666        1.97180760
 C            3.38448375       -0.17611183        1.62236603
 C            2.53406454       -2.33741345        0.95696186
 C            0.36050024       -2.26326553        2.04922713
 C            1.14962584       -2.60143103        0.93842390
 C           -1.71049039       -1.24536493        2.84606183
 C           -1.00481841       -1.98555700        1.87585552
 C           -2.90298399       -0.63195258        2.50035177
 C           -1.90256448        1.52097586        3.11357019
 C           -2.95559587        0.82090753        2.51886945
 C           -0.04655282        3.04113458        2.54866428
 C           -1.46572639        2.71085796        2.52262512
 C            0.26709885        3.76623362        1.33622623
 C            1.96604963        2.08808040        0.85824360
 C            1.30181194        3.23903434        0.47110987
 C            3.32604887        0.17488771        0.27201035
 C            2.49807183        1.23769524       -0.11881980
 C            3.19761348       -2.19894767       -0.24813804
 C            3.57876301       -0.84945351       -0.63449971
 C            2.68114648       -2.87485298       -1.40786118
 C            0.52132392       -2.96129674       -0.26321635
 C            1.29162106       -3.26253718       -1.39000541
 C           -1.62907084       -2.34816879        0.67353704
 C           -0.85932179       -2.79565895       -0.40387660
 C           -3.62669975       -1.09126985        1.34360785
 C           -2.96336416       -2.00475320        0.44371460
 C           -3.44628583        1.24037929        1.21527511
 C           -4.01091471        0.08052896        0.56808109
 C           -1.97073028        3.08249013        1.20907188
 C           -0.95417590        3.87051077        0.55441542
 C           -2.69719289        2.14825013        0.47944895
 C            0.81341930        3.33748451       -0.88450752
 C           -0.62323384        3.55511860       -0.81147066
 C            2.11271153        1.38743289       -1.46772957
 C            1.27927010        2.45495837       -1.84937724
 C            3.23114115       -0.68085345       -2.02630889
 C            2.88028447       -1.99475751       -2.54460312
 C            2.47380195        0.41490965       -2.41666731
 C            0.76622146       -2.98862074       -2.71639963
 C            1.71383701       -2.11599495       -3.39891972
 C           -1.43637218       -2.84831444       -1.67624644
 C           -0.59431690       -2.77205930       -2.85666019
 C           -3.36603749       -1.60237292       -0.88880518
 C           -3.65893754       -0.18364065       -0.80620746
 C           -2.61457673       -2.04984031       -1.95583316
 C           -2.34610694        1.86416114       -0.85725879
 C           -1.45068329        2.70844151       -1.54066838
 C           -2.83995746        0.70771813       -1.49463525
 C            0.47390256        2.31829215       -2.97455535
 C           -0.96836748        2.32865091       -2.78776426
 C            1.77816897        0.31818690       -3.62167000
 C            1.25400075       -0.97335662       -4.03933403
 C            0.78920812        1.31321374       -3.95809153
 C           -1.07578474       -1.65782016       -3.66335160
 C           -2.22959531       -1.09434799       -2.97855307
 C           -2.27085808        0.27222602       -2.69219479
 C           -1.49384123        1.14684568       -3.43391580
 C           -0.16969515       -0.80616292       -4.28129021
 C           -0.44498503        0.61994164       -4.29300997
