   70
C70 / DATE: 7/ 1/2024 / Origin: Program Fullerene / C70 from database
 C            1.27439070       -0.25308448        4.36023980
 C            2.54600202       -0.59264083        3.76801019
 C            2.47230048       -1.97121741        3.30512458
 C            0.43764657       -1.44261802        4.33986114
 C            1.14327363       -2.47411968        3.60445068
 C           -0.88627553       -1.04119551        3.89609292
 C            0.50730581        0.83132456        3.78141579
 C           -0.87488207        0.40408837        3.72189657
 C            1.01452692        1.56279348        2.71331443
 C            3.03196325        0.20619024        2.66031907
 C            2.28866679        1.28870006        2.18771550
 C            2.94267619       -1.99148631        1.92859190
 C            3.59585140       -0.71761345        1.69673035
 C            2.12555222       -2.53131744        0.93525157
 C            0.46077864       -3.18317464        2.62666445
 C            1.06115079       -3.34015254        1.30994150
 C           -1.57668983       -1.82391123        2.97309478
 C           -0.96400522       -2.95193378        2.42845822
 C           -2.65485788       -1.24997383        2.30825955
 C           -1.70728458        0.96659451        2.76017882
 C           -2.76906923        0.19914839        2.28589645
 C            0.12626544        2.34671431        1.98115963
 C           -1.24124105        2.03881804        1.99210838
 C            0.64337937        3.22459366        1.03671712
 C            2.65682136        1.84722443        0.95963076
 C            1.93980669        2.92838751        0.46065373
 C            3.74664434       -0.28413079        0.39325951
 C            3.44615669        1.10378536        0.08470455
 C            2.18435004       -2.01798546       -0.36571320
 C            3.16701438       -1.08220450       -0.67258198
 C            1.13245822       -2.23736195       -1.26937408
 C           -0.01243409       -3.57601965        0.37228755
 C           -1.27428534       -3.35725764        1.06609072
 C            0.10403738       -3.13497044       -0.93669261
 C           -3.05936139       -1.74718165        1.00058853
 C           -2.32282759       -2.75233507        0.37567531
 C           -3.44622982        0.57467308        1.05637236
 C           -3.53058472       -0.61007373        0.22001876
 C           -2.09276004        2.60440816        1.04389012
 C           -3.15258018        1.79306817        0.47163948
 C           -0.20742113        3.75735301       -0.01202063
 C           -1.55495305        3.43108800       -0.02236570
 C            1.84398543        3.12869974       -0.97953678
 C            0.55165473        3.74658700       -1.25204575
 C            3.18346185        1.16564656       -1.34173320
 C            2.98133742       -0.20023961       -1.80498193
 C            2.37213428        2.17373859       -1.85228528
 C            1.09710427       -1.53181528       -2.48929440
 C            1.95960577       -0.45204666       -2.70697055
 C            0.04936352       -1.73260411       -3.38613913
 C           -1.06384475       -3.14922847       -1.68432160
 C           -2.31017295       -2.81052493       -1.01750704
 C           -1.08036909       -2.54187048       -2.99166690
 C           -3.21510058       -0.54003909       -1.13466213
 C           -2.91526578       -1.73213204       -1.78108238
 C           -2.26931457       -1.70463318       -3.07364097
 C           -3.01869108        1.86294715       -0.97102880
 C           -2.19455147        3.02091111       -1.26442591
 C           -2.84985136        0.68939585       -1.70672344
 C           -0.09356071        3.49226542       -2.45476680
 C           -1.48085352        3.04937344       -2.45176205
 C            1.77401323        1.96227031       -3.09244334
 C            1.56525152        0.59404893       -3.54176631
 C            0.60891012        2.73883794       -3.47371235
 C           -0.49736122       -0.59189915       -4.09439890
 C           -1.86182285       -0.42995746       -3.61719855
 C           -2.21218381        0.74532283       -2.95668678
 C           -1.59272760        1.92651800       -3.36654624
 C            0.29020284        0.53757008       -4.23887027
 C           -0.34263025        1.83786417       -4.10135880
