   70
C70 / DATE: 7/ 1/2024 / Origin: Program Fullerene / C70 from database
 C            1.63463874       -0.15493027        5.50561917
 C            0.76841251       -1.29446724        5.75417764
 C            1.31233829       -2.43119371        5.03288781
 C            2.63620337       -0.55935863        4.53393449
 C            2.44230393       -1.96198784        4.24858399
 C            2.57334997        0.37316843        3.42474081
 C            0.83205631        0.88882792        4.88998635
 C            1.52528232        1.33835749        3.69907171
 C           -0.53095399       -0.99228626        5.18060501
 C           -0.51723775        0.39038416        4.72816708
 C            0.29846490       -2.89327926        4.09847448
 C           -0.85261043       -2.02429454        4.20527883
 C            2.20606551       -2.34503798        2.87109495
 C            0.92140863       -3.01568862        2.79883190
 C            2.67757875       -0.09424629        2.11817686
 C            2.51325149       -1.45925719        1.84219948
 C            2.34905750        0.80257799        1.10496634
 C            0.76557737        1.77299417        2.61582690
 C            1.36725066        1.76172489        1.35832719
 C           -1.17202679        0.68019112        3.53813635
 C           -0.62300345        1.63463407        2.67356931
 C           -1.47768709       -1.62294226        3.02918769
 C           -1.95931089       -0.32102197        2.98044262
 C            0.15156631       -2.77185466        1.66627610
 C           -1.13307010       -2.23918869        1.81728853
 C            2.04111727       -1.79474029        0.57614103
 C            0.83382780       -2.48540877        0.49013194
 C            2.52919605        0.39140681       -0.20458140
 C            2.37942977       -0.96494465       -0.48280692
 C            2.25841089        1.29970323       -1.21570237
 C            0.66023990        2.29717131        0.27959998
 C            1.20901299        2.20253801       -1.00828448
 C           -1.36584130        1.98543402        1.54558124
 C           -0.70836056        2.52845649        0.43763635
 C           -2.76498247        0.02418685        1.91461632
 C           -2.58724179        1.34285284        1.34846218
 C           -1.83261786       -1.85420130        0.66458617
 C           -2.82919521       -0.89052677        0.79148346
 C            0.10215835       -2.37037686       -0.68274736
 C           -1.25454158       -2.05124591       -0.59370926
 C            1.96637023       -1.33388559       -1.76194203
 C            0.78811624       -2.07923012       -1.86134345
 C            2.56822058        0.89209291       -2.50316822
 C            2.35653810       -0.50725481       -2.81234889
 C            2.10841109        1.67887260       -3.62141505
 C            0.51653179        2.74671366       -2.10127971
 C            1.02338909        2.60536197       -3.39357494
 C           -1.46837823        2.90385019       -0.66553485
 C           -0.82076653        3.09722946       -1.95072933
 C           -3.16312320        1.29740443        0.02006770
 C           -3.21808398       -0.10430733       -0.36877566
 C           -2.72894418        2.22030308       -0.91234224
 C           -1.91118145       -1.58155696       -1.73531885
 C           -2.75365526       -0.46901316       -1.62782137
 C            0.06794676       -2.10172059       -3.05174677
 C           -1.36719199       -1.90438997       -2.97461953
 C            1.68060802       -0.57995758       -4.09376468
 C            1.70025033        0.75801850       -4.66979523
 C            0.55614252       -1.38543139       -4.21734880
 C            0.09809885        2.46367689       -4.50884987
 C            0.50275569        1.30018003       -5.28430918
 C           -1.78128960        2.70537867       -2.97244238
 C           -2.73794675        1.84049240       -2.31050845
 C           -2.77920834        0.48902924       -2.64864950
 C           -1.32205307        2.34745245       -4.23150081
 C           -1.77848712       -1.15421194       -4.14566762
 C           -0.60214498       -0.92556641       -4.96915379
 C           -0.65648915        0.44438872       -5.44979641
 C           -2.43675144        0.11889800       -3.94431310
 C           -1.78720235        1.09505286       -4.80826551
