   70
C70 / DATE: 7/ 1/2024 / Origin: Program Fullerene / C70 from database
 C            0.94336466       -0.11158941        4.99819061
 C            2.30865498       -0.41623575        4.61889008
 C            2.28193207       -1.64771815        3.84108565
 C            0.13570844       -1.27149080        4.66468969
 C            0.89643795       -2.06271717        3.71657429
 C           -1.16544912       -0.78334157        4.26686450
 C            0.28772341        1.04360655        4.40490568
 C           -1.09476049        0.67082818        4.20536505
 C            0.93820161        1.77037160        3.40937201
 C            3.04426836        0.56968672        3.85345413
 C            2.33100572        1.71127499        3.31040562
 C            3.04878713       -1.42470333        2.62899179
 C            3.65901476       -0.11267891        2.72686886
 C            2.50147342       -1.79444180        1.40807371
 C            0.38182969       -2.29574601        2.44086682
 C            1.27008558       -2.45418407        1.37417854
 C           -1.71516015       -1.23111905        3.00431196
 C           -0.97037107       -2.05892696        2.16770142
 C           -1.75591200        1.08557964        2.98327286
 C           -2.37720389       -0.09077456        2.40971742
 C            0.20070487        2.36797324        2.37802104
 C           -1.12040220        1.97007075        2.11947666
 C            0.88484781        3.10808678        1.41730966
 C            2.96459593        2.01206671        2.04042490
 C            3.57056539        0.77603147        1.57524531
 C            2.27041860        2.78285196        1.12890734
 C            2.92780054       -1.12338348        0.26630131
 C            3.16992501        0.24708027        0.34668274
 C            2.59998117       -1.67252551       -0.95962481
 C            0.77519823       -2.86834831        0.13696361
 C            1.60391630       -2.72369955       -0.97498394
 C           -1.40832205       -2.19904335        0.85344502
 C           -0.60850953       -2.90064355       -0.04428543
 C           -2.58319452       -0.11204483        1.03987011
 C           -2.36002711       -1.29965000        0.35648382
 C           -1.63765556        2.09282396        0.82518530
 C           -2.46769363        1.07403425        0.32806579
 C            0.24878259        3.38944586        0.14593759
 C           -1.07830734        3.03014629       -0.04796231
 C            2.32238318        2.41028288       -0.27260306
 C            2.61181873        1.09824167       -0.61683018
 C            1.20112343        3.05998662       -0.90442734
 C            2.29020545       -0.77970837       -2.05982559
 C            2.05810596        0.56012858       -1.78391193
 C            1.03278206       -2.74615324       -2.30482685
 C            1.40388884       -1.49357984       -2.95510854
 C           -1.13728046       -3.19798306       -1.29742887
 C           -0.25853629       -3.21886509       -2.45685728
 C           -2.70939039       -1.36074007       -0.99014415
 C           -2.34664345       -2.50567474       -1.69665190
 C           -2.82994997        1.06546696       -1.01679958
 C           -2.99014653       -0.16652548       -1.67414060
 C           -1.55362926        3.10248373       -1.35303431
 C           -2.63600164        2.23158223       -1.74792401
 C            0.68941743        2.55045223       -2.08734751
 C            1.05219916        1.25015858       -2.48386518
 C           -0.57126200        3.01956292       -2.42142549
 C            0.44453321       -0.79439476       -3.67761835
 C            0.31077340        0.59086706       -3.48809222
 C           -1.02488884       -2.74909721       -3.59593792
 C           -2.38585659       -2.51531288       -3.14367466
 C           -0.59158389       -1.53308790       -4.25627806
 C           -3.28429848       -0.19694959       -3.04118123
 C           -2.87191847       -1.33898574       -3.83121238
 C           -1.80009168       -0.87305655       -4.70064481
 C           -2.60061818        2.18510838       -3.19641121
 C           -1.23125231        2.48676878       -3.58615130
 C           -0.68872538        1.28671401       -4.17670220
 C           -2.96877600        0.95568182       -3.85835056
 C           -1.83863661        0.56967500       -4.68983714
