   70
C70 / DATE: 7/ 1/2024 / Origin: Program Fullerene / C70 from database
 C            1.26643297       -0.17977774        4.19331271
 C            2.54527150       -0.50000047        3.60107135
 C            2.43913233       -1.81512854        2.98631450
 C            0.42854946       -1.36215445        4.08689587
 C            1.08093778       -2.28733256        3.18524962
 C           -0.90888891       -0.91944387        3.75449479
 C            0.51363423        0.94074260        3.65601339
 C           -0.87553991        0.52984758        3.61003032
 C            1.03682160        1.67974636        2.59655436
 C            3.07834546        0.39719354        2.60022028
 C            2.40120793        1.57385990        2.28751682
 C            2.94736806       -1.71072968        1.62748507
 C            3.57663810       -0.41324850        1.50283802
 C            2.15997895       -2.17415768        0.58424518
 C            0.36736549       -2.74844466        2.08577486
 C            1.04380400       -2.95090491        0.88041815
 C           -1.65926813       -1.65436234        2.84178384
 C           -1.02889534       -2.65136101        2.08562052
 C           -2.81169456       -1.05061500        2.34787582
 C           -1.72915467        1.11811986        2.68501571
 C           -2.86552517        0.40140183        2.31594718
 C            0.15393116        2.27757747        1.68708136
 C           -1.23080682        2.09964637        1.82330466
 C            0.65281341        2.99211534        0.59559292
 C            2.90777308        2.29891272        1.21705333
 C            2.02288623        3.15607589        0.45730277
 C            3.65733886        0.18795263        0.25373412
 C            3.71974281        1.57969355        0.25124295
 C            2.26400936       -1.57442644       -0.67285548
 C            3.11142581       -0.47345163       -0.85657501
 C            1.46013611       -2.03288539       -1.72704269
 C            0.39541493       -3.59793316       -0.15848909
 C            0.60198784       -3.11335226       -1.51214337
 C           -1.74382893       -3.30738797        1.08679858
 C           -1.00955237       -3.92211059       -0.00436218
 C           -3.43904522       -1.54813965        1.13477717
 C           -2.92183144       -2.67357635        0.51877566
 C           -3.62027510        0.79269213        1.14060503
 C           -3.80410601       -0.39903411        0.32333905
 C           -2.08976430        2.68072176        0.88810364
 C           -3.32016335        1.99521662        0.52250043
 C           -0.16328894        3.20693658       -0.51109374
 C           -1.53363800        3.26691622       -0.31895667
 C            0.33548546        2.95283864       -1.79097883
 C            2.58088614        3.27495928       -0.88064412
 C            3.65909842        2.30424101       -0.99862599
 C            1.69860455        3.09562954       -2.01936228
 C            3.16856698        0.13005062       -2.11150222
 C            3.45075173        1.55155123       -2.21466291
 C            2.34282350        2.16807989       -2.92443295
 C            1.28839958       -1.24624412       -2.86983865
 C            2.13337130       -0.16404239       -3.08238867
 C            1.54125099        1.10334723       -3.48926491
 C            0.04543125       -1.22147818       -3.49883142
 C           -0.67945622       -3.15832052       -2.20015467
 C           -1.68458776       -3.58513296       -1.24502385
 C           -2.77347250       -2.67842518       -0.92561455
 C           -0.99901680       -2.13598196       -3.07816224
 C           -3.47448912       -0.36601202       -1.03272993
 C           -2.89452036       -1.48611342       -1.63874401
 C           -2.20065569       -1.34716723       -2.84202776
 C           -3.47110262        2.08582514       -0.91755542
 C           -2.40488139        2.92916425       -1.42785374
 C           -3.47898215        0.86018321       -1.69699389
 C           -0.43895589        2.22452533       -2.70136299
 C            0.15449776        1.21679134       -3.47301789
 C           -0.57172002        0.06670913       -3.76706959
 C           -1.97668357       -0.02677699       -3.40642609
 C           -1.82582575        2.26931967       -2.58412906
 C           -2.60249814        1.06706949       -2.83597315
