   70
C70 / DATE: 7/ 1/2024 / Origin: Program Fullerene / C70 from database
 C            1.53241453       -0.02348875        4.15836543
 C            2.69396235       -0.19554292        3.29931082
 C            2.51573351       -1.43669052        2.56718784
 C            0.67952268       -1.18822324        4.00030018
 C            1.33391534       -2.10481631        3.09168104
 C           -0.64925620       -0.73041055        3.65869893
 C            0.70442903        1.16112720        3.99971476
 C           -0.61422246        0.71983363        3.57777081
 C            1.25932193        2.28692300        3.41207314
 C            3.20300846        0.91052664        2.63610199
 C            2.62585941        2.21352581        2.91959753
 C            3.42435676        0.82991812        1.19985391
 C            2.75172883       -1.48050650        1.19397125
 C            2.98362178       -0.29021795        0.49786989
 C            2.28888357       -2.59290981        0.50422502
 C            0.55338669       -2.84008971        2.20698946
 C            1.18795172       -3.34950857        1.07834845
 C           -1.35588270       -1.42438844        2.68633401
 C           -0.82747908       -2.61256685        2.16363349
 C           -2.34594887       -0.74457810        1.97905545
 C           -1.25234746        1.34110652        2.50628068
 C           -2.25860742        0.64343787        1.83789165
 C            0.48276449        3.03062004        2.43432120
 C           -0.70293099        2.49468745        1.92957904
 C            2.70410645        3.00565256        1.70819203
 C            3.20338229        2.15213107        0.64275896
 C            1.42258354        3.66086369        1.52165351
 C            2.62728098        2.26348462       -0.61504055
 C            2.53154504       -0.14264693       -0.82177890
 C            2.51843593        1.12629252       -1.41512036
 C            2.06185034       -2.50454278       -0.92287482
 C            2.10053411       -1.26209916       -1.54520149
 C            0.40185411       -3.89876855       -0.01208248
 C            0.99912725       -3.43879807       -1.25656692
 C           -1.60536409       -3.36386919        1.28470534
 C           -0.97984965       -3.95991888        0.11510659
 C           -3.22336426       -1.46993978        1.18052898
 C           -2.90181129       -2.85108238        0.87840847
 C           -3.74812870       -0.86821727       -0.03214424
 C           -2.96548804        1.28240163        0.82723640
 C           -3.61916502        0.49809291       -0.20673946
 C           -1.20953319        2.98374276        0.71988360
 C           -2.37750601        2.44517593        0.19422168
 C            1.01297085        3.91360427        0.22307935
 C            1.79093534        3.35063715       -0.86702907
 C           -0.38309614        3.71854165       -0.12533582
 C            0.93081798        3.32993982       -2.03452696
 C           -0.44167427        3.47899809       -1.56089395
 C            2.05019160        1.27487348       -2.71780597
 C            1.20219544        2.41447606       -3.03658719
 C            1.47173433       -1.10448515       -2.78233823
 C            1.53363804        0.12225754       -3.42947404
 C            0.19258965       -3.17096373       -2.35214236
 C            0.49544160       -2.01834671       -3.18326003
 C           -1.82648685       -3.68769678       -1.03706240
 C           -3.02900856       -3.03069174       -0.55920886
 C           -3.40971572       -1.75026155       -1.13420123
 C           -1.25590925       -3.25181321       -2.22612637
 C           -0.76399031       -1.52621008       -3.72023096
 C           -2.69595087       -1.24866352       -2.22188003
 C           -1.81946988       -2.09290114       -2.90395555
 C           -3.16714711        1.00638428       -1.48977250
 C           -2.49973204        2.27598924       -1.24791707
 C           -1.45356485        2.66796342       -2.07948944
 C           -2.64880418        0.13290103       -2.44330224
 C            0.09657235        1.93221156       -3.83663065
 C            0.38419881        0.55950905       -4.20382251
 C           -0.84907353       -0.19752153       -4.09823257
 C           -1.23895902        1.97205186       -3.26914118
 C           -1.83337913        0.65349389       -3.44701448
