   70
C70 / DATE: 7/ 1/2024 / Origin: Program Fullerene / C70 from database
 C            1.49123368       -0.07681727        4.16998253
 C            2.68630038       -0.23767301        3.35642508
 C            2.53500672       -1.46666748        2.59523881
 C            0.65808660       -1.25165940        3.98259832
 C            1.33815751       -2.14572922        3.07029893
 C           -0.67335238       -0.80884753        3.63084589
 C            0.65712144        1.09867445        3.97852814
 C           -0.65608556        0.64128721        3.55710710
 C            1.20967989        2.21824307        3.37597459
 C            3.22828521        0.87868110        2.73709310
 C            2.60199327        2.17165015        2.96133912
 C            3.57314630        0.80155184        1.32739208
 C            2.82072146       -1.48767980        1.23001440
 C            3.14665659       -0.29457938        0.57553863
 C            2.35196707       -2.56830408        0.48983244
 C            0.58216497       -2.86409907        2.15135475
 C            1.23882229       -3.33893729        1.02036288
 C           -1.36374750       -1.50442409        2.64766006
 C           -0.80301543       -2.66651417        2.10044015
 C           -2.37318027       -0.83752690        1.95420527
 C           -1.30419782        1.25605466        2.48896640
 C           -2.32281310        0.55546812        1.84129153
 C            0.46244199        2.90484910        2.33525940
 C           -0.73062080        2.36982561        1.86262469
 C            2.73034670        2.94592104        1.74111795
 C            3.46324409        2.14411539        0.77886653
 C            1.41136090        3.43400484        1.37340877
 C            3.14831470        2.29356849       -0.56049150
 C            2.85153189       -0.13197053       -0.78507260
 C            3.02153673        1.10833374       -1.38741939
 C            2.13191002       -2.41260383       -0.93366295
 C            2.18729156       -1.13849754       -1.48430393
 C            0.47320795       -3.85490454       -0.10122366
 C            1.06741529       -3.32340610       -1.31846929
 C           -1.55495544       -3.41470362        1.19689283
 C           -0.90734438       -3.95382961        0.01209247
 C           -3.23290565       -1.57129259        1.14445322
 C           -2.86612239       -2.93158963        0.80168003
 C           -3.79084980       -0.95743393       -0.04658565
 C           -3.04567819        1.19813871        0.84138249
 C           -3.72124914        0.41784209       -0.18339642
 C           -1.18819093        2.76478358        0.60499655
 C           -2.45500655        2.35751785        0.19965590
 C            1.05854469        3.44716987        0.02764366
 C            2.04265693        3.16469125       -0.92036321
 C           -0.28595949        3.29819595       -0.32479790
 C            2.17954419        1.46160355       -2.51619420
 C            1.64917694        2.79817975       -2.26699002
 C            1.41484468       -0.82534095       -2.61092821
 C            1.35582363        0.49065150       -3.08096750
 C            0.26070854       -2.99564859       -2.39656923
 C            0.52578119       -1.76836640       -3.12754494
 C           -1.75096375       -3.65728696       -1.13587455
 C           -2.98268362       -3.07091444       -0.64148803
 C           -3.42062111       -1.79161711       -1.17572816
 C           -1.18418131       -3.14513391       -2.29616224
 C           -0.73703631       -1.31992002       -3.68439974
 C           -2.73614434       -1.22448977       -2.24955757
 C           -1.78852046       -1.98567108       -2.93637019
 C           -3.35041673        0.97938947       -1.46993631
 C           -2.78212345        2.29446221       -1.21320974
 C           -2.79132195        0.15823303       -2.45095127
 C           -0.64000154        3.38760219       -1.67250799
 C            0.36296972        3.09911421       -2.68529170
 C           -1.90900330        2.84795503       -2.13403092
 C            0.26492189        0.89802179       -3.85019337
 C           -0.88342684        0.02018988       -3.99275640
 C           -2.03487410        0.73483423       -3.46972010
 C           -0.24989833        2.24472409       -3.68291554
 C           -1.66642564        2.13855082       -3.37649030
