   70
C70 / DATE: 7/ 1/2024 / Origin: Program Fullerene / C70 from database
 C            1.49153586        0.03911676        4.91906924
 C            0.69376368       -1.14974676        4.68036725
 C            1.51965568       -2.09105346        3.96304832
 C            2.69549442       -0.07118938        4.11135799
 C            2.73264552       -1.39903639        3.54709265
 C            2.71583080        1.05283077        3.20306168
 C            0.73708184        1.18339605        4.43421288
 C            1.56822091        1.89664432        3.49726230
 C           -0.55518371       -0.73340451        4.07249743
 C           -0.54226950        0.71457471        3.96320241
 C           -1.08954736       -1.45739888        3.00770471
 C            0.96459083       -2.72369202        2.78594578
 C           -0.37329585       -2.52908433        2.44365499
 C            2.84255266       -1.53876021        2.10352940
 C            1.94645574       -2.61050696        1.72876928
 C            3.05233331        0.86438263        1.86384640
 C            2.90631854       -0.40812395        1.28696938
 C            2.89569109        1.97754563        1.05374422
 C            0.97036356        2.54723158        2.42366351
 C            1.82849654        2.90565975        1.39624868
 C           -1.07681173        1.27630421        2.81008459
 C           -0.36939949        2.26681653        2.10359592
 C           -2.07744137       -0.83415249        2.24413538
 C           -2.07379088        0.56214901        2.15367087
 C           -2.74825483       -1.59387958        1.29439371
 C           -0.77274618       -3.01120433        1.19346302
 C           -2.08133391       -2.77292405        0.78417914
 C            1.46982464       -2.65517553        0.43233085
 C            0.21994856       -3.22662442        0.23005098
 C            2.51017184       -0.53191915       -0.05619787
 C            1.92963222       -1.72501849       -0.50161555
 C            2.87153218        1.81680221       -0.38194428
 C            2.57977903        0.56707861       -0.91414650
 C            1.28545995        3.41879186        0.16179322
 C            2.18052369        2.98126779       -0.89787488
 C           -0.91276751        2.75711229        0.90223232
 C           -0.08819903        3.37719373       -0.04753764
 C           -2.79469497        1.20641989        1.15973152
 C           -2.21075723        2.38327922        0.54657116
 C           -3.42717476       -0.94554289        0.18483038
 C           -3.44948195        0.43486224        0.11736960
 C           -2.44049822       -2.91879413       -0.61518197
 C           -3.14433772       -1.70918322       -1.01688217
 C           -0.12656976       -3.53820359       -1.07565178
 C           -1.51924225       -3.47696211       -1.48576399
 C            1.47058356       -1.83594394       -1.81804487
 C            0.66338982       -2.93542885       -2.13258847
 C            2.01981694        0.49202866       -2.19228401
 C            1.51804693       -0.72186441       -2.66851509
 C            1.69763693        2.93692140       -2.19130431
 C            1.76089872        1.67163539       -2.90204520
 C           -0.55527345        3.59913957       -1.34325136
 C            0.38702383        3.50649235       -2.44676163
 C           -2.61652495        2.38912507       -0.84902471
 C           -3.17514925        1.08417698       -1.15115181
 C           -1.80132094        2.99630515       -1.78234951
 C           -2.77424472       -1.05858414       -2.19546434
 C           -2.66299422        0.34091756       -2.21595753
 C           -1.54314969       -3.06106490       -2.87711571
 C           -0.16429403       -2.92946254       -3.31883256
 C           -2.22193211       -1.82411468       -3.21938959
 C            0.83914179       -0.72973276       -3.89109194
 C           -0.09791205       -1.79009636       -4.19907801
 C           -1.42258209       -1.18297400       -4.23763987
 C            0.70606634        1.69452200       -3.90152322
 C           -0.23323271        2.72844345       -3.50365706
 C           -1.55172244        2.32338042       -3.04674283
 C           -1.93361493        0.99309037       -3.22304204
 C            0.19131819        0.48658746       -4.33359332
 C           -1.23408033        0.24862182       -4.17043554
