   70
C70 / DATE: 7/ 1/2024 / Origin: Program Fullerene / C70 from database
 C            1.61489809        0.10149104        4.54048938
 C            0.83095522       -1.11667927        4.53282781
 C            1.31193359       -1.96614551        3.45434184
 C            2.62915328       -0.02535594        3.51277051
 C            2.45337866       -1.30659389        2.85304006
 C            2.57332341        1.16648800        2.68468416
 C            0.73040957        1.18386767        4.14641408
 C            1.33029720        1.84306148        3.00768876
 C           -0.56450829       -0.72753885        4.50845449
 C           -0.60269088        0.63517675        3.99784343
 C           -1.45663640       -1.63639411        3.97326245
 C            0.36343957       -2.58158582        2.64221020
 C           -0.91199447       -2.73013809        3.18141303
 C            0.52201204       -2.54009752        1.24622473
 C            2.60239244       -1.32961769        1.47704006
 C            1.71735963       -2.07533201        0.69381368
 C            2.90423024        1.03060139        1.33745149
 C            3.24274660       -0.24469198        0.88947844
 C            2.34187347        1.92263343        0.41545373
 C            0.52529045        2.22667083        1.94992918
 C            1.16146189        2.58417508        0.76937184
 C           -1.32019874        0.90384861        2.82907889
 C           -0.81518091        1.81549990        1.89510902
 C           -2.55933836       -1.12465829        3.19174383
 C           -2.37248886        0.05747361        2.46784975
 C           -1.98586618       -3.20738056        2.33969104
 C           -3.10189153       -2.29230163        2.53194691
 C           -0.56580087       -2.78275153        0.39777422
 C           -1.75212861       -3.29277760        0.91616521
 C           -0.53452170       -2.31111860       -0.92017921
 C            1.84591702       -1.99366878       -0.69541285
 C            0.68832602       -1.94939059       -1.48552289
 C            3.64668874       -0.38567414       -0.42267001
 C            3.03126147       -1.45206691       -1.18674075
 C            2.70968983        1.80400931       -0.93270473
 C            3.60155961        0.78406370       -1.27037203
 C            1.95975685        2.44804967       -1.93024225
 C            0.40588453        3.22017109       -0.19515192
 C            0.84785293        3.20549854       -1.57257538
 C           -1.56516635        2.11818263        0.75625044
 C           -1.03065443        3.01550834       -0.17266743
 C           -3.01927245        0.24031186        1.23732093
 C           -2.65008507        1.30578744        0.40652378
 C           -3.73692381       -2.11776368        1.25245606
 C           -2.99860785       -2.92035482        0.28682286
 C           -3.80822466       -0.78309060        0.69927299
 C           -1.72232021       -1.96140522       -1.57625728
 C           -2.94520121       -2.14902657       -0.93719873
 C           -3.79103963       -0.98694071       -0.73085876
 C           -1.67418468       -1.01690130       -2.59877927
 C            0.70684780       -1.32538356       -2.74185916
 C           -0.47435043       -0.78816476       -3.26672885
 C            3.12855993       -1.07961395       -2.58248706
 C            3.65822179        0.27770830       -2.62460266
 C            1.92417485       -1.08605995       -3.37824991
 C            2.14709464        2.13684875       -3.27975977
 C            2.94698655        0.98959812       -3.65695094
 C            2.04741824        0.03733871       -4.28728342
 C           -0.42151852        0.27842033       -4.16774929
 C            0.99582402        2.12596971       -4.16414076
 C            0.85216219        0.76142017       -4.65355591
 C           -0.33981990        3.19256824       -2.41441283
 C           -1.49688543        3.01911772       -1.54736242
 C           -0.29588757        2.53993107       -3.63993035
 C           -1.22620816        1.45286700       -3.89858315
 C           -3.16682333        1.35210968       -0.89262240
 C           -3.56901896        0.11234379       -1.53281944
 C           -2.67787293       -0.04717980       -2.66196428
 C           -2.50916130        2.14960794       -1.91736769
 C           -2.33690967        1.29542434       -3.08644547
