   70
C70 / DATE: 7/ 1/2024 / Origin: Program Fullerene / C70 from database
 C            1.21724944       -0.16652105        4.27760687
 C            2.47895085       -0.53143578        3.67668646
 C            2.39341268       -1.92079296        3.25873570
 C            0.37104449       -1.34818562        4.29854368
 C            1.08864831       -2.42788425        3.64847423
 C           -0.93620645       -0.96800135        3.79222980
 C            0.45607141        0.91370935        3.67995925
 C           -0.90946362        0.46013849        3.50652369
 C            1.01604172        1.69189664        2.67712371
 C            2.94537332        0.23873608        2.54272497
 C            2.30506849        1.42130293        2.19116281
 C            2.78845823       -1.99067721        1.85916332
 C            3.27238512       -0.68028902        1.47387610
 C            2.00134331       -2.70814850        0.96834473
 C            0.40340076       -3.24251390        2.75979118
 C            1.01152266       -3.54834038        1.47660714
 C           -1.61243578       -1.81582563        2.91869171
 C           -1.01345456       -3.00859975        2.50982749
 C           -2.64824919       -1.27990037        2.16164264
 C           -1.66031708        0.94600157        2.43531255
 C           -2.71233232        0.16258315        1.98301267
 C            0.15014642        2.44522322        1.89004893
 C           -1.11584510        1.92804003        1.59326581
 C            0.70835542        3.41446238        1.07387374
 C            2.67239289        1.99866649        0.97763226
 C            2.08313999        3.21875007        0.66453909
 C            3.07965679       -0.23377052        0.17368815
 C            3.10147289        1.14261517       -0.05041374
 C            1.95593427       -2.31916883       -0.37323575
 C            2.43463571       -1.05807170       -0.75636711
 C            1.18191377       -3.05701079       -1.27085245
 C           -0.05246813       -4.00796304        0.60754472
 C           -1.31064360       -3.55552375        1.19161661
 C            0.12580325       -3.91939470       -0.76220797
 C           -3.03083311       -1.90231763        0.90341549
 C           -2.26923445       -2.94286318        0.38544549
 C           -3.29463054        0.42458579        0.68769574
 C           -3.51661638       -0.85212531        0.02115411
 C           -1.72967298        2.23074588        0.36249902
 C           -2.85270951        1.50182558       -0.06314153
 C           -0.02942944        3.89121756       -0.07490875
 C           -1.19756179        3.24166635       -0.45654539
 C            2.24826448        3.78925440       -0.65515133
 C            0.94351958        4.25117324       -1.09799166
 C            3.12083681        1.57654621       -1.37124993
 C            2.80414951        2.95388601       -1.69346944
 C            2.05544559       -0.52716713       -1.99533420
 C            2.50657394        0.72888690       -2.37340155
 C            0.68603710       -2.41057099       -2.47409439
 C            0.96046075       -1.06429625       -2.65888053
 C           -1.04398859       -3.72029543       -1.59267132
 C           -2.22978593       -3.13406661       -0.99287530
 C           -0.65360619       -2.89018951       -2.71765465
 C           -3.31636592       -0.94556565       -1.35639796
 C           -2.69339807       -2.07918927       -1.88143837
 C           -1.69451182       -1.91273622       -2.92952803
 C           -3.21021206        1.50364616       -1.40423670
 C           -3.28471074        0.23209764       -2.10340813
 C           -1.56676682        3.32067912       -1.79789906
 C           -2.60912119        2.45890878       -2.30389287
 C            0.73838375        3.77998821       -2.45700634
 C            1.87401198        2.94569263       -2.81061387
 C            1.63871070        1.55940249       -3.18925157
 C           -0.52869232        3.34847700       -2.81444414
 C           -0.00832348       -0.20520773       -3.20193456
 C           -1.34825744       -0.62238195       -3.30536460
 C           -2.35948179        0.32100902       -3.21962410
 C           -2.05059972        1.71567551       -3.42550695
 C            0.33468516        1.13526479       -3.44498738
 C           -0.66357545        2.10423718       -3.55247822
