   70
C70 / DATE: 7/ 1/2024 / Origin: Program Fullerene / C70 from database
 C            1.36501838       -0.17365901        4.56212715
 C            2.59032030       -0.34231777        3.80415496
 C            2.52340376       -1.62587992        3.12799358
 C            0.50732832       -1.31511438        4.28459840
 C            1.21456906       -2.20087307        3.37653199
 C           -0.79221476       -0.81050752        3.88055949
 C            0.57784123        1.03055312        4.36462171
 C           -0.79545667        0.62342626        4.10789889
 C            1.12214753        2.09344700        3.65077990
 C            2.95173568        0.66064562        2.81830575
 C            2.31481420        1.89244544        2.83222562
 C            2.93205621       -1.43159153        1.74732953
 C            3.15454371       -0.01107386        1.54514778
 C            2.26468782       -2.13923099        0.75512592
 C            0.52551961       -2.73358374        2.29332306
 C            1.24501607       -3.01146245        1.13100854
 C           -1.37303833       -1.32836382        2.72609374
 C           -0.84868768       -2.50229265        2.18863603
 C           -2.18067593       -0.51600248        1.92269193
 C           -1.61428392        1.42429878        3.32488266
 C           -2.40173892        0.80980548        2.26923464
 C            0.23962387        2.99493649        2.92735806
 C           -1.11424294        2.69221472        2.81839280
 C            2.10220814        2.58397970        1.57505608
 C            0.96684868        3.46790068        1.76054973
 C            2.69363464        0.57518385        0.36719030
 C            2.24245619        1.89759054        0.36726882
 C            2.25297209       -1.62150407       -0.53768880
 C            2.40543921       -0.24211261       -0.72323064
 C            1.74477206       -2.41001934       -1.56985815
 C            0.62885371       -3.77320066        0.14740089
 C            0.93255021       -3.50020912       -1.24905380
 C           -1.54367460       -3.11619945        1.15448962
 C           -0.80320963       -3.97506204        0.25108580
 C           -2.51428250       -0.93860059        0.63705202
 C           -2.43181009       -2.29480899        0.34945525
 C           -2.56242192       -0.00699243       -0.40748655
 C           -2.57436400        1.78726706        1.21124409
 C           -1.81600206        2.97360209        1.57649833
 C           -2.58158637        1.36482185       -0.11748675
 C            0.26840177        3.87974664        0.63796797
 C           -1.17559665        3.69024706        0.57636738
 C            1.64289189        2.42046650       -0.78290760
 C            0.79410376        3.52229178       -0.66641277
 C            2.05725317        0.34187717       -1.93797875
 C            1.62278939        1.66912856       -1.96206922
 C            1.71178537       -1.89786793       -2.86319209
 C            1.89685480       -0.47005687       -3.05674720
 C            0.65147120       -2.33090433       -3.75515760
 C           -0.28040341       -3.74926550       -2.01996117
 C           -1.37467872       -3.82722748       -1.07310409
 C           -2.32347698       -2.72936796       -1.03026641
 C           -0.48467801       -3.02240510       -3.18156217
 C           -2.55127702       -0.44164646       -1.73978389
 C           -2.28067562       -1.77847018       -2.04211545
 C           -1.60915120       -2.09660650       -3.22530696
 C           -2.54969327        0.49710171       -2.76759857
 C           -2.29155692        2.29330750       -1.11938188
 C           -1.50926348        3.40683217       -0.80963727
 C           -0.31015440        3.66193174       -1.59142618
 C           -2.36954420        1.90234871       -2.45038680
 C            0.89716815        2.14375802       -3.05816014
 C           -0.20331128        3.06761727       -2.83535947
 C           -1.39204578        2.44177821       -3.38104955
 C            1.02459901       -0.04726344       -4.14079763
 C            0.14999873       -1.16413959       -4.45682209
 C           -1.27241286       -1.04721724       -4.17122362
 C           -1.80875619        0.21843801       -3.98924432
 C            0.47959935        1.22636901       -4.10490307
 C           -0.96091096        1.36774234       -4.25328774
