   70
C70 / DATE: 7/ 1/2024 / Origin: Program Fullerene / C70 from database
 C            1.48333139        0.10821288        5.11607554
 C            0.69433186       -1.07119232        4.80375195
 C            1.57947308       -2.00666093        4.16009949
 C            2.67354046        0.06323907        4.28310279
 C            2.81069814       -1.29499418        3.82437126
 C            2.55712474        1.11785800        3.29346706
 C            0.71633005        1.26581722        4.70401408
 C            1.53367440        2.02796712        3.78068395
 C           -0.48973589       -0.63820206        4.08677346
 C           -0.57685354        0.80362819        4.23257267
 C           -0.81529422       -1.20543011        2.85064053
 C            1.13495594       -2.65393801        2.94279630
 C           -0.06447884       -2.27127298        2.32992632
 C            3.04682273       -1.52892475        2.41505935
 C            2.31993661       -2.74267621        2.11888555
 C            2.60262858        0.80924143        1.92755383
 C            2.96781266       -0.47552464        1.49617058
 C            2.07089479        1.72310687        1.01372750
 C            0.86903292        2.81405103        2.85774967
 C            1.32855070        2.80731541        1.48337375
 C           -1.18542641        1.52146540        3.21385231
 C           -0.57767557        2.70241508        2.78458022
 C           -1.68145913       -0.50172966        2.01204429
 C           -1.98879811        0.83091997        2.31104918
 C           -2.03162848       -1.03800781        0.77055340
 C           -0.26082825       -2.66552606        1.00015806
 C           -1.27577611       -2.08483669        0.23487997
 C            2.14221323       -3.05954027        0.79345314
 C            0.78786323       -3.30093438        0.34035647
 C            2.84110728       -0.81201225        0.14267376
 C            2.70664231       -2.15669459       -0.18837011
 C            1.99511028        1.39861884       -0.34071371
 C            2.42411095        0.14533902       -0.78492824
 C            1.22576444        2.20476541       -1.18254538
 C            0.22665744        3.30778852        0.67686547
 C           -0.96884894        3.26860484        1.50508030
 C            0.14855438        2.90373523       -0.64978475
 C           -2.71743697        1.58056724        1.39883346
 C           -2.15111122        2.83577607        0.93103041
 C           -3.00775917       -0.40592947       -0.00543307
 C           -3.32139677        0.92398371        0.25773403
 C           -3.33411972       -0.92153154       -1.25577018
 C           -1.39494094       -2.41212780       -1.12417036
 C           -2.49855345       -1.95487455       -1.83745547
 C            0.85171452       -3.23217505       -1.10195307
 C            2.07113117       -2.50791655       -1.43683341
 C           -0.29527371       -2.92802165       -1.81854061
 C            2.21787034       -0.22078967       -2.12506695
 C            1.99847505       -1.56862574       -2.45208906
 C            1.25890063        1.98779838       -2.54890428
 C            1.89077396        0.78125446       -3.04116987
 C            0.03226376        2.18214617       -3.30132551
 C           -1.09635694        2.82657990       -1.28478108
 C           -2.25692175        2.82894580       -0.51454987
 C           -3.30715676        1.88668509       -0.83314152
 C           -1.15888441        2.36082010       -2.60113382
 C           -3.69372103        0.00735222       -2.31586886
 C           -3.39362689        1.41433616       -2.12989334
 C           -2.33402840        1.75915574       -3.06781155
 C           -2.37833451       -1.68493883       -3.26444722
 C           -3.04689303       -0.42643410       -3.53919809
 C           -2.26925754        0.68940406       -4.05492822
 C           -0.10417961       -2.57071742       -3.15074897
 C            1.13231548       -1.88973992       -3.49285803
 C           -1.17808271       -1.95410850       -3.90378539
 C            1.25067565        0.44545542       -4.30238683
 C            0.07128418        1.28638160       -4.44249251
 C           -1.06984286        0.42862797       -4.70429099
 C            0.84819841       -0.92188517       -4.52691671
 C           -0.58608386       -0.94144577       -4.76965312
