   70
C70 / DATE: 7/ 1/2024 / Origin: Program Fullerene / C70 from database
 C            1.60269770        0.24793295        4.84083728
 C            0.77721014       -0.93772763        4.69867961
 C            1.44481955       -1.83725959        3.77741384
 C            2.66333646        0.17123503        3.85053736
 C            2.61118047       -1.14263497        3.24666123
 C            2.54945190        1.32340053        2.98037601
 C            0.78266105        1.39617480        4.50812054
 C            1.50506507        2.17841738        3.52317871
 C           -0.57431919       -0.51434030        4.38991758
 C           -0.54721805        0.92088779        4.16087147
 C           -1.33051699       -1.30888899        3.54748512
 C            0.67709893       -2.60916693        2.90588795
 C           -0.71246096       -2.46707039        2.91183420
 C            1.30317013       -3.12372335        1.77384774
 C            2.88867948       -1.27166033        1.89112215
 C            2.50035043       -2.46105297        1.28578493
 C            2.61820051        1.12403510        1.60133294
 C            3.02669783       -0.11868949        1.10503794
 C            2.03181542        2.05990661        0.73936340
 C            0.75785619        2.93039607        2.63547348
 C            1.22896667        3.05634240        1.27071032
 C           -1.16774238        1.46392541        3.03370546
 C           -0.66989002        2.66484881        2.54209756
 C           -2.17647510       -0.67183997        2.55460546
 C           -1.94236411        0.64930856        2.19518617
 C           -1.47774952       -2.74407719        1.70678018
 C           -2.42083449       -1.64906629        1.51823231
 C            0.51817366       -3.52578582        0.61711381
 C           -0.85550885       -3.29568312        0.59013648
 C            2.53231775       -2.58504823       -0.15841627
 C            1.31780451       -3.26510717       -0.57470024
 C            3.25023556       -0.24804987       -0.26186687
 C            3.00550973       -1.52628433       -0.91139314
 C            1.98456746        1.81249601       -0.63513253
 C            2.77820498        0.79960975       -1.15182144
 C            0.97347671        2.37915698       -1.43103165
 C            0.09614117        3.50746898        0.50164179
 C           -1.09606185        3.12503711        1.24170939
 C            0.07356839        3.30240402       -0.86795298
 C           -2.29039880        1.08192558        0.90515074
 C           -2.07799531        2.42255270        0.55754593
 C           -2.69293336       -1.22475878        0.22620244
 C           -2.62249854        0.13698229       -0.08797150
 C           -1.48894268       -3.16466859       -0.64176861
 C           -2.52737714       -2.15693537       -0.78656080
 C            0.67927447       -2.89131904       -1.75416783
 C           -0.68857648       -3.12757126       -1.85334586
 C            2.40638214       -1.25895724       -2.20345872
 C            2.41480965        0.18083458       -2.40826466
 C            1.30190357       -1.99379438       -2.63394235
 C            0.75161244        1.89352127       -2.73669754
 C            1.41096140        0.73868120       -3.18560806
 C           -0.27423013        2.44416488       -3.51300740
 C           -1.17801963        3.44107933       -1.44686962
 C           -2.29919189        2.82802755       -0.75240196
 C           -1.32928474        3.17551923       -2.85252584
 C           -2.83070319        0.54778891       -1.41287672
 C           -2.90311668        1.90864370       -1.68722730
 C           -2.55018658        2.40085311       -3.00600311
 C           -2.53190490       -1.72195953       -2.16640914
 C           -1.47063335       -2.44029557       -2.86016122
 C           -2.75047827       -0.38196689       -2.46314935
 C            0.60391669       -1.50576463       -3.73837477
 C            0.78729743       -0.10952541       -4.10009980
 C           -0.80902115       -1.81060934       -3.89940594
 C           -0.93903447        1.62883149       -4.51100296
 C           -2.31239328        1.44567261       -4.06077498
 C           -2.47426798        0.03894695       -3.76574724
 C           -0.40194965        0.31902968       -4.80268875
 C           -1.44113592       -0.65475640       -4.51175436
