   70
C70 / DATE: 7/ 1/2024 / Origin: Program Fullerene / C70 from database
 C            1.46276308        0.00372372        4.54354473
 C            0.66687969       -1.17344559        4.23492392
 C            1.44366247       -2.01321299        3.35813207
 C            2.64261025       -0.02801973        3.69788894
 C            2.68601130       -1.31660647        3.05889103
 C            2.62225449        1.13912791        2.85070850
 C            0.68533090        1.17035786        4.16985977
 C            1.43352872        1.91355931        3.18318030
 C           -0.62540149       -0.72906568        3.77385624
 C           -0.63585784        0.72113251        3.80799657
 C           -1.21187653       -1.35010052        2.67410847
 C            0.81119976       -2.68386427        2.31327673
 C           -0.47942081       -2.28332595        1.91391117
 C            1.65813077       -3.27045108        1.37334217
 C            3.16409471       -1.41176668        1.76136362
 C            2.95531264       -2.64542089        1.16521372
 C            2.97761305        1.01538743        1.50894080
 C            3.17487807       -0.26065239        0.94466097
 C            2.64791287        2.08401205        0.68240391
 C            0.74570792        2.53607057        2.14592109
 C            1.49138029        2.89673978        1.03250772
 C           -1.29882334        1.36514939        2.77734914
 C           -0.63443504        2.32613597        1.99835602
 C           -2.29160675       -0.69421315        2.08061791
 C           -2.37676238        0.69673508        2.21383090
 C           -2.97163617       -1.33986178        1.05740897
 C           -0.96082604       -2.66574137        0.65132515
 C           -2.25380831       -2.32289165        0.27352142
 C            1.14665257       -3.62034862        0.06512738
 C           -0.06475656       -3.07333206       -0.33553955
 C            3.32622612       -2.82809229       -0.21414012
 C            2.27992342       -3.61998604       -0.83918676
 C            3.22172244       -0.40139786       -0.45684608
 C            3.51140428       -1.64414705       -1.01838124
 C            2.64840556        1.91469462       -0.75448680
 C            2.78000507        0.63887268       -1.28566163
 C            0.81695801        3.26891654       -0.19426928
 C            1.65047459        2.82057918       -1.29607030
 C           -1.29777255        2.83618007        0.87362627
 C           -0.56608344        3.14263724       -0.28275554
 C           -3.22122336        1.43348153        1.39795111
 C           -2.67293151        2.62608793        0.78289552
 C           -3.82916848       -0.58470438        0.16005083
 C           -4.04653912        0.76262309        0.41288898
 C           -2.50973676       -2.03949294       -1.12598898
 C           -3.56538907       -1.04682278       -1.19762341
 C           -0.27876408       -2.69503560       -1.67128858
 C           -1.42751406       -1.97584938       -1.99684151
 C            2.09775445       -3.10661674       -2.17525695
 C            2.98297787       -1.96059080       -2.32692861
 C            0.77384306       -2.67898064       -2.57940515
 C            2.28499445        0.37221440       -2.57185255
 C            2.24317144       -0.93823458       -3.03099842
 C            0.94888333       -1.49732483       -3.39197280
 C            1.05128572        2.51077384       -2.50218523
 C            1.39018697        1.26145203       -3.16120616
 C           -1.15921639        3.05846564       -1.55054596
 C           -0.37921433        2.71575112       -2.65496975
 C           -3.34716417        2.81680900       -0.48330815
 C           -4.23872544        1.68380713       -0.69209459
 C           -2.54288561        2.97454033       -1.67325441
 C           -3.58099930       -0.15315222       -2.25919554
 C           -4.04384265        1.20743918       -2.04768270
 C           -3.09947883        2.10121893       -2.69347389
 C           -1.35888269       -0.96487118       -2.96882215
 C           -0.12351650       -0.62394882       -3.53208402
 C            0.17132813        0.72066871       -3.74123243
 C           -0.87213087        1.71670298       -3.59157335
 C           -2.44150141       -0.10383673       -3.16049649
 C           -2.18757652        1.29335796       -3.48196294
