   70
C70 / DATE: 7/ 1/2024 / Origin: Program Fullerene / C70 from database
 C            1.26357363        0.23981372        4.84899252
 C            0.49236071       -0.98622563        4.74102645
 C            1.30131247       -1.96715679        4.03674129
 C            2.52660695        0.02302146        4.17094306
 C            2.63048128       -1.39050117        3.86546599
 C            2.62024353        0.97003416        3.07382423
 C            0.54690837        1.27392403        4.12447616
 C            1.38964210        1.73946244        3.04011074
 C           -0.80529816       -0.64224772        4.19933191
 C           -0.76238817        0.75458747        3.78911994
 C           -1.42802941       -1.55350285        3.36135662
 C            0.72686086       -2.71841874        3.00444659
 C           -0.64187651       -2.62301900        2.75569625
 C            1.54456093       -3.27113124        2.02080494
 C            3.37919688       -1.75747766        2.75910175
 C            2.94696778       -2.90731423        1.98880255
 C            3.16193775        0.53885346        1.86945716
 C            3.76370485       -0.72458442        1.80652341
 C            2.77034156        1.17132556        0.68820711
 C            0.79892943        1.99430549        1.80658968
 C            1.57355381        1.90331033        0.65250272
 C           -1.31614021        1.10433130        2.56182963
 C           -0.58829006        1.92203555        1.68943237
 C           -2.32839980       -1.05261254        2.34051619
 C           -2.33302438        0.30749532        2.03816347
 C           -1.13087292       -2.81634335        1.39662959
 C           -2.30760692       -1.99301410        1.23736225
 C            1.06691214       -3.33534005        0.64297883
 C           -0.22134150       -2.90857545        0.35123222
 C            3.31764921       -2.68242530        0.60348136
 C            3.94573408       -1.37629940        0.51840373
 C            2.15466096       -2.95045372       -0.23075684
 C            3.35050191        0.75326853       -0.49881430
 C            3.73995761       -0.63735989       -0.63208598
 C            2.73982831        1.13128802       -1.75090213
 C            1.00282380        2.27614441       -0.57391257
 C            1.72303685        2.07656057       -1.75923043
 C           -1.18019980        2.28679239        0.48423093
 C           -0.37322880        2.56017340       -0.62607309
 C           -2.91744017        0.69769640        0.83595831
 C           -2.50083978        1.90448081        0.27858897
 C           -2.62152836       -1.49341525       -0.01238669
 C           -3.34159612       -0.31248592       -0.02867647
 C           -0.48255823       -2.23544940       -0.84978089
 C           -1.76900488       -1.74371284       -1.09192932
 C            1.89528312       -2.10396064       -1.30238817
 C            2.87897032       -1.19261572       -1.66099526
 C            2.51630381       -0.08879416       -2.50901497
 C            0.57219996       -1.85429646       -1.68862557
 C            1.34486125       -0.15424540       -3.23725730
 C            0.31969820       -0.99700297       -2.77090643
 C            1.06759609        2.22715630       -2.97610667
 C            0.98411337        1.04595825       -3.82188903
 C           -0.98126570        2.90535304       -1.84021641
 C           -0.23341212        2.85301051       -3.01350085
 C           -3.16252800        2.36668797       -0.84944495
 C           -2.37638555        2.96674473       -1.91220034
 C           -3.91702318        0.04974949       -1.23035891
 C           -4.10649876        1.46190822       -1.47408078
 C           -2.06084922       -1.12062436       -2.31121092
 C           -1.00726092       -0.75137784       -3.16381563
 C           -3.31396147       -0.50317863       -2.42802968
 C           -0.25106240        1.10689771       -4.55299618
 C           -0.84948415        2.39324618       -4.24969448
 C           -1.24077118        0.10173231       -4.25175118
 C           -3.05731872        2.67826023       -3.16910928
 C           -4.06095047        1.66533377       -2.90768433
 C           -3.58874290        0.42549709       -3.50640629
 C           -2.28063297        2.20248096       -4.29092664
 C           -2.51950200        0.76624131       -4.40916998
