   70
C70 / DATE: 7/ 1/2024 / Origin: Program Fullerene / C70 from database
 C            1.61174897       -0.26990734        4.91143329
 C            0.75910389       -1.44360289        4.95694072
 C            1.22136090       -2.37020184        3.93896700
 C            2.60789917       -0.48662293        3.87840814
 C            2.36078680       -1.77900695        3.26768321
 C            2.60665542        0.67798026        3.01377947
 C            0.79723343        0.85895946        4.49478744
 C            1.45797436        1.49353116        3.37370913
 C           -0.58181799       -1.03127405        4.58532279
 C           -0.55880756        0.39325115        4.30240768
 C            0.07936974       -2.74416551        3.12985344
 C           -1.04875753       -1.92289342        3.53519198
 C            0.26715885       -2.94635929        1.77143960
 C            2.42197993       -1.85935940        1.88095112
 C            1.51816523       -2.68288660        1.20145590
 C            2.86295613        0.49056891        1.66090890
 C            3.01985530       -0.81171671        1.18474448
 C            2.41817075        1.46607315        0.77365537
 C            0.67965429        2.00655326        2.34104387
 C            1.29206205        2.22241054        1.11680738
 C           -1.25566631        0.83128465        3.18379496
 C           -0.70535616        1.82439821        2.36152710
 C           -1.86259765       -1.38671163        2.53822442
 C           -2.19111765       -0.03518141        2.63066174
 C           -0.85415016       -2.89522519        0.95464415
 C           -1.87116051       -1.99083963        1.27430140
 C           -0.71938088       -3.34892628       -0.34715042
 C            1.67048066       -2.85465883       -0.17854585
 C            0.62153700       -3.42784784       -0.89724334
 C            3.27797406       -0.99449453       -0.16589880
 C            2.63962937       -2.10550527       -0.85096740
 C            2.81426169        1.38555536       -0.56147437
 C            3.24083889        0.15566562       -1.05576844
 C            2.34143134        2.33517179       -1.46070720
 C            0.57726425        2.87092695        0.12226342
 C            1.26259383        3.20469548       -1.03559590
 C           -1.46708908        2.26992235        1.27060933
 C           -0.82199028        2.77647553        0.12519266
 C           -3.07699858        0.49055560        1.71093665
 C           -2.77794397        1.80321958        1.17721947
 C           -2.63985772       -1.41245020        0.25657660
 C           -3.45329179       -0.33363757        0.58114516
 C           -1.58646342       -2.81064837       -1.37586359
 C           -2.34556490       -1.68585301       -1.08406232
 C            0.51961616       -3.21105462       -2.32901843
 C           -0.86197607       -2.86733636       -2.62644840
 C            2.43988605       -1.70829094       -2.23966510
 C            2.75487576       -0.29583994       -2.35142545
 C            1.37416627       -2.22105804       -2.95537394
 C            2.03649493        1.92023886       -2.81923744
 C            1.94356232        0.55623868       -3.09854562
 C            0.52856833        3.60521511       -2.21149144
 C            1.05635420        2.85062942       -3.34015768
 C           -1.55941898        3.04999102       -1.04519381
 C           -0.90753049        3.45599990       -2.20783789
 C           -3.49743767        1.91179728       -0.07018065
 C           -3.89631216        0.56556410       -0.46256119
 C           -2.83264827        2.51031373       -1.20032034
 C           -2.57550066       -0.71967815       -2.07924492
 C           -3.42625627        0.35008601       -1.81541412
 C           -3.09772604        1.65821806       -2.34750147
 C           -0.85693369       -1.69315681       -3.46845313
 C            0.52743307       -1.31566547       -3.71052238
 C            0.83759336        0.04177173       -3.80009080
 C           -1.78387022       -0.68376718       -3.23699393
 C           -0.06142967        2.32626409       -4.08497388
 C           -1.27737713        2.82431894       -3.46422482
 C           -2.24320129        1.73857860       -3.43414657
 C           -0.19084936        0.89006104       -4.21505457
 C           -1.56021667        0.53333861       -3.87923237
