   70
C70 / DATE: 7/ 1/2024 / Origin: Program Fullerene / C70 from database
 C            1.10377454       -0.08686106        4.75844759
 C            2.36140420       -0.47580730        4.15514698
 C            2.23419110       -1.85619215        3.71667789
 C            0.24648372       -1.26110644        4.76437128
 C            0.83690786       -2.22551076        3.85919341
 C           -1.09948017       -0.81123673        4.51038266
 C            0.34605211        0.99176689        4.14784411
 C           -1.04832624        0.62463466        4.26214252
 C            0.80129814        1.55754300        2.95743986
 C            2.84467767        0.28844328        3.02602457
 C            2.14956585        1.41652397        2.60528466
 C            2.85355956       -1.96917727        2.40555266
 C            3.30223705       -0.64447215        2.01039596
 C            2.24426422       -2.77132445        1.45927628
 C            0.13979227       -2.65336205        2.72692850
 C            0.87675227       -3.21688906        1.69079224
 C           -1.82963863       -1.39698640        3.40625061
 C           -1.17599425       -2.22386034        2.48606130
 C           -1.93209193        0.89248371        3.14496269
 C           -2.67161325       -0.33207634        2.90412359
 C           -0.12432849        2.03150135        2.01170876
 C           -1.45720486        1.60632370        2.04712698
 C            0.32945197        2.74392393        0.90048822
 C            2.59019544        1.99590282        1.42785437
 C            1.70013055        2.86909985        0.69992640
 C            3.22952381       -0.23834007        0.67508962
 C            3.22753869        1.13155958        0.44434522
 C            2.34292645       -2.39890963        0.06164957
 C            2.66595702       -1.08975809       -0.28607063
 C            0.26386235       -3.41504258        0.39640174
 C            1.24587977       -3.05449119       -0.61683929
 C           -1.75796983       -2.39721787        1.21984525
 C           -1.06363028       -3.05938055        0.19854547
 C           -3.25472461       -0.50251592        1.66519346
 C           -2.93459683       -1.70522953        0.92124694
 C           -2.19110181        1.56117684        0.86062821
 C           -3.18031834        0.58960976        0.71188406
 C           -0.52904163        2.95806313       -0.18060370
 C           -1.70652378        2.21014153       -0.27391249
 C           -0.01815614        3.58368267       -1.31811082
 C            2.21415890        2.91219293       -0.65488142
 C            2.88291623        1.64091970       -0.86539962
 C            1.37942289        3.37546630       -1.65137130
 C            2.17867912       -0.57468823       -1.49823888
 C            2.38028141        0.77327227       -1.82709059
 C            0.79167668       -2.53329010       -1.81727437
 C            1.41081073       -1.39513564       -2.33854523
 C           -1.51041443       -2.97624583       -1.12103572
 C           -0.52254186       -2.81016253       -2.17598087
 C           -3.28354080       -1.43243420       -0.45980453
 C           -3.40741129        0.01081431       -0.59914187
 C           -2.65464346       -2.14789838       -1.46043575
 C           -2.23047555        1.87271177       -1.52817871
 C           -2.85136171        0.63682429       -1.70636628
 C           -0.75903738        3.51754468       -2.56513934
 C           -1.89168064        2.62260762       -2.64600710
 C            1.38235651        2.67530762       -2.91990600
 C            1.74436250        1.32397090       -2.94238982
 C            0.18129529        3.11910471       -3.60235574
 C            0.99059089       -0.91518124       -3.57750674
 C            1.22356257        0.47643293       -3.91521094
 C           -1.14035729       -2.06422757       -3.25438431
 C           -2.36591409       -1.48800513       -2.72348262
 C           -2.57843277       -0.11631649       -2.85209046
 C           -0.33576513       -1.27561898       -4.06288102
 C           -1.82127398        1.95287480       -3.93068108
 C           -0.49972819        2.20157842       -4.48925425
 C            0.11614970        0.91646520       -4.75070841
 C           -2.06000829        0.52154370       -3.97680369
 C           -0.92536208       -0.08706060       -4.65114999
