   70
C70 / DATE: 7/ 1/2024 / Origin: Program Fullerene / C70 from database
 C            1.28490852        0.08732791        4.74340644
 C            2.49392118       -0.07406227        3.96444402
 C            2.52910172       -1.45057115        3.50399188
 C            0.45558017       -1.08929440        4.51661203
 C            1.20115438       -2.00051454        3.66477457
 C           -0.84794777       -0.63126340        4.06807587
 C            0.46378161        1.25212405        4.49481231
 C           -0.90200995        0.78991777        4.31326387
 C            0.77366456        2.10378990        3.35793650
 C            2.70594940        0.77605328        2.80194257
 C            1.74163162        1.71060445        2.43588864
 C            3.09862713       -1.44603530        2.17360196
 C            3.29769206       -0.05738178        1.77871442
 C            2.59567554       -2.32587176        1.22054944
 C            0.57634622       -2.53317656        2.54249331
 C            1.36010697       -2.94422779        1.45798986
 C           -1.34900059       -1.12699834        2.86813759
 C           -0.78548353       -2.28838263        2.34895365
 C           -2.14897447       -0.32078850        2.04055657
 C           -1.50276506        1.62607231        3.30179956
 C           -0.49895746        2.58393075        2.86431488
 C           -2.30584514        1.04679611        2.32650311
 C           -0.58581249        3.04282529        1.55761307
 C            1.54986942        2.01304734        1.08498878
 C            0.52700033        2.89888245        0.72445961
 C            3.12163430        0.27114118        0.43996146
 C            2.27380203        1.32886607        0.09286820
 C            3.00288656       -2.10672753       -0.09085378
 C            3.32758293       -0.74486817       -0.48237368
 C            2.29935675       -2.73736462       -1.19363810
 C            0.75625194       -3.68897058        0.44673373
 C            1.18353884       -3.51241616       -0.93138548
 C           -1.45133583       -2.94458406        1.32754337
 C           -0.68976297       -3.80644091        0.44413744
 C           -2.60530328       -0.84043213        0.81714384
 C           -2.38884289       -2.18556616        0.52080014
 C           -2.97954215        0.02303202       -0.21601478
 C           -2.72411765        1.90341565        1.31629280
 C           -1.85133203        3.01700596        0.98164410
 C           -3.21844816        1.35931319        0.07242578
 C           -2.00215831        3.29614972       -0.43292467
 C           -2.99453377        2.36626992       -0.95151625
 C            0.44254717        3.34306341       -0.59131567
 C           -0.86775621        3.58093603       -1.18052650
 C            2.03056836        1.60140469       -1.26060604
 C            1.27692320        2.72081196       -1.60107589
 C            2.90395660       -0.56004134       -1.85141913
 C            2.26382103       -1.78860903       -2.29272562
 C            2.34569032        0.65019491       -2.24077657
 C            1.13170634       -1.68526560       -3.09397119
 C           -0.00300543       -3.34057950       -1.75419079
 C           -1.15868275       -3.58422298       -0.91202776
 C           -2.20108536       -2.57713677       -0.86561402
 C           -0.05743941       -2.29445032       -2.67278892
 C           -2.84034328       -0.37935511       -1.54867977
 C           -2.21210100       -1.58830317       -1.83794715
 C           -1.28070483       -1.64572995       -2.87837867
 C           -2.92817942        1.96375750       -2.27569088
 C           -3.02562565        0.54654612       -2.57284020
 C           -0.81410224        3.18497236       -2.57732355
 C            0.54862297        2.75092983       -2.85899131
 C           -1.89753978        2.51497516       -3.14067007
 C            1.67439395        0.66412844       -3.46280123
 C            1.06051693       -0.57216390       -3.92571438
 C            0.78734739        1.76087082       -3.80144468
 C           -1.41030380       -0.76632026       -3.94764318
 C           -2.36208090        0.32494057       -3.84451980
 C           -1.67537874        1.55657757       -4.20799483
 C           -0.20407108       -0.23602149       -4.54484963
 C           -0.31558509        1.21346347       -4.57414122
