   70
C70 / DATE: 7/ 1/2024 / Origin: Program Fullerene / C70 from database
 C            1.31019447       -0.12479802        4.33204666
 C            2.57789363       -0.50111793        3.75507876
 C            2.54617112       -1.93146744        3.49731761
 C            0.45307983       -1.30169353        4.34638488
 C            1.20715916       -2.41378008        3.80289249
 C           -0.80747223       -0.93361853        3.72458921
 C            0.56157854        0.94959076        3.71189431
 C           -0.81367015        0.51204199        3.60235420
 C            1.10201924        1.67098022        2.64911652
 C            3.00490801        0.15891075        2.53804268
 C            2.29964878        1.25377454        2.04127819
 C            3.10196672       -2.15796502        2.17096127
 C            3.42229608       -0.86185605        1.59767103
 C            2.54425813       -3.13620093        1.36189098
 C            0.58156025       -3.27588476        2.91227717
 C            1.35842068       -3.83884903        1.82166979
 C           -1.31061479       -1.69810017        2.67282887
 C           -0.73717432       -2.93685980        2.38727193
 C           -2.13204083       -1.07949410        1.72403667
 C           -1.59227889        1.08291846        2.61050411
 C           -2.46789172        0.26186711        1.90600045
 C            0.23370623        2.50025527        1.93420065
 C           -1.14307504        2.25696686        2.00684132
 C            0.74869493        3.26143546        0.88940635
 C            2.56647641        1.64944511        0.72916566
 C            1.97420334        2.81597890        0.25843382
 C            3.20691770       -0.62043650        0.24521649
 C            3.07993169        0.70592151       -0.17036287
 C            2.38185578       -2.87554045       -0.05848475
 C            2.72447500       -1.63754459       -0.58806355
 C            0.47227960       -4.00917625        0.68563968
 C           -0.82497066       -3.46201945        1.03745295
 C            1.13801205       -3.48116792       -0.49229158
 C           -2.32532269       -1.67479675        0.47083827
 C           -1.49774880       -2.72513537        0.07508890
 C           -3.09162672       -1.02373198       -0.50252374
 C           -3.38445343        0.85518444        1.05000594
 C           -3.70359988        0.19392310       -0.20126050
 C           -2.01722445        2.93742115        1.16437400
 C           -3.25385668        2.27724158        0.78310906
 C           -0.13275529        3.76500964       -0.15221798
 C           -1.50032585        3.61372040       -0.01266284
 C            1.85238915        3.04959014       -1.16949272
 C            0.48357376        3.46920328       -1.43327411
 C            3.06951879        0.96051405       -1.53835628
 C            2.48015778        2.18550974       -2.05050104
 C            2.20815199       -1.29115620       -1.83586174
 C            2.68023577       -0.12260215       -2.41881079
 C            0.36781847       -2.80151010       -1.42986844
 C           -1.00910692       -2.73901995       -1.22790707
 C            0.97401499       -1.83084995       -2.23375202
 C           -2.95455070       -1.40946892       -1.83626277
 C           -1.79835635       -2.19717350       -2.22533992
 C           -3.19114949       -0.43821026       -2.88848429
 C           -3.83493975        1.22182932       -1.22997160
 C           -3.45354739        2.48894986       -0.63908517
 C           -2.27992794        3.17002426       -1.15530486
 C           -3.40585030        0.94514380       -2.51888222
 C           -0.25636022        2.84084085       -2.43695499
 C           -1.63335065        2.64893803       -2.27589699
 C           -2.30991311        1.72650217       -3.08001114
 C            1.82624385        1.87081227       -3.30756405
 C            1.98509875        0.44498675       -3.55059092
 C            0.41743277        2.18866691       -3.46773203
 C            0.21017882       -1.21845975       -3.23897411
 C           -1.14891150       -1.51330744       -3.32841206
 C           -2.06384062       -0.48974894       -3.80452679
 C           -1.56568374        0.86151781       -3.98207184
 C            0.68835053       -0.08885213       -3.90110475
 C           -0.19928171        1.04597744       -4.11301833
