   70
C70 / DATE: 7/ 1/2024 / Origin: Program Fullerene / C70 from database
 C            1.72076727       -0.13015363        5.05469433
 C            0.87214841       -1.29697527        5.20618377
 C            1.32794742       -2.29320453        4.25826276
 C            2.63271836       -0.37488309        3.94703389
 C            2.37826304       -1.70350352        3.44047485
 C            2.51941350        0.73609580        3.02773881
 C            0.87189975        0.98173132        4.67322472
 C            1.49732447        1.63020715        3.54211490
 C           -0.47838737       -0.92423502        4.81705897
 C           -0.48032398        0.49133056        4.49588084
 C            0.15503991       -2.81478057        3.58160619
 C           -0.92264452       -1.85928204        3.79672558
 C            0.33443260       -3.31273377        2.30442594
 C            2.31840134       -1.90223182        2.06353326
 C            1.57161265       -2.98340673        1.61520802
 C            2.53172425        0.49046064        1.65458352
 C            2.54645775       -0.83114685        1.18325755
 C            2.06280949        1.50369754        0.81099600
 C            0.68166731        2.23919394        2.60537294
 C            1.24066677        2.48998017        1.36397739
 C           -1.17544123        0.91056395        3.36615604
 C           -0.69851244        2.01612149        2.65759300
 C           -1.61922043       -1.35645848        2.69629287
 C           -1.98063795       -0.00799475        2.69534301
 C           -0.72212839       -3.12260926        1.33127433
 C           -1.60690909       -2.06427038        1.48716823
 C            1.31208968       -3.11728949        0.20225500
 C           -0.11084426       -3.32733079        0.03850545
 C            2.45632180       -1.04655202       -0.19859304
 C            1.92508577       -2.24980987       -0.68630520
 C            2.07925385        1.29632712       -0.57137531
 C            2.50937052        0.05983209       -1.05290142
 C            1.42284888        2.19232791       -1.42688710
 C            0.54169454        3.34499660        0.53561917
 C            0.77262705        3.29413407       -0.88961912
 C           -1.48652838        2.54300684        1.62937948
 C           -0.88994363        3.44639170        0.74950122
 C           -2.79404870        0.46176578        1.67588600
 C           -2.61650074        1.82938562        1.21934435
 C           -2.19778494       -1.50358985        0.35007388
 C           -2.98508101       -0.36898026        0.50054745
 C           -0.69196734       -2.76263964       -1.08177751
 C           -1.76144606       -1.87275514       -0.93099645
 C            1.46363423       -2.27936189       -2.00002926
 C            0.11730643       -2.62484131       -2.20283679
 C            2.54888513       -0.15998349       -2.42706721
 C            2.11128205       -1.45265139       -2.90782102
 C            1.19201642        1.84391884       -2.76253864
 C            1.97772967        0.83537742       -3.31548763
 C            0.00411978        2.25224339       -3.40143915
 C           -0.43793591        3.75577785       -1.52721176
 C           -1.50262983        3.72050004       -0.53606650
 C           -0.89568433        3.03913680       -2.69338396
 C           -3.06173891        1.87784969       -0.16740265
 C           -3.20577766        0.50838938       -0.63613976
 C           -2.53931885        2.83278898       -1.02366659
 C           -2.18682191        2.44932373       -2.37815514
 C           -2.18811109       -1.14535114       -2.05150598
 C           -2.70293044        0.14842867       -1.88323794
 C           -2.43190742        1.15299232       -2.82683295
 C           -0.51801105       -2.31489815       -3.39612062
 C           -1.75207068       -1.55467180       -3.31249642
 C            1.57268319       -1.28158141       -4.24172561
 C            1.54469542        0.14570115       -4.51955316
 C            0.25656788       -1.81321407       -4.51317871
 C           -0.56935933        1.42786192       -4.36392913
 C           -1.84323773        0.80497643       -4.03892448
 C           -1.74319602       -0.59127190       -4.38967611
 C            0.24508516        0.46229164       -5.06607308
 C           -0.51951012       -0.77046521       -5.15633827
