   70
C70 / DATE: 7/ 1/2024 / Origin: Program Fullerene / C70 from database
 C            1.29426018       -0.16771497        5.54178525
 C            0.43748736       -1.31648080        5.32287683
 C            1.09222468       -2.17113424        4.35045695
 C            2.45989555       -0.31435316        4.68399113
 C            2.24757606       -1.46858827        3.83115583
 C            2.68323426        0.96471886        4.05845609
 C            0.57646729        1.00955279        5.08456020
 C            1.51476154        1.79913411        4.32379846
 C           -0.79194194       -0.84547195        4.70676919
 C           -0.64030073        0.56727594        4.42665584
 C            0.08202099       -2.57633827        3.40102417
 C           -1.07844269       -1.72705086        3.59147940
 C            0.46374432       -2.78973991        2.08985569
 C            2.37135661       -1.35139743        2.44238369
 C            1.68000710       -2.25914698        1.63924523
 C            2.90998113        1.00308856        2.62786606
 C            2.84579376       -0.16630135        1.86310695
 C            1.08509999        2.33598954        3.04820000
 C            2.19600312        2.16417970        2.14371662
 C           -0.92993564        1.01083280        3.13570721
 C           -0.18640523        2.04835270        2.55741919
 C           -1.65562421       -1.18999718        2.44172740
 C           -1.71415885        0.20182980        2.30855198
 C           -0.56210303       -2.88669125        1.16389568
 C           -1.60315936       -1.96022359        1.27302192
 C           -0.21169999       -3.37562251       -0.07775785
 C            1.91905835       -2.26729029        0.26512487
 C            1.16074513       -3.15969454       -0.48774846
 C            2.75131953       -0.00645985        0.47347858
 C            2.40360093       -1.09697524       -0.33734822
 C            1.92015612        2.20695053        0.79375923
 C            2.57154897        1.29012131       -0.01554420
 C           -0.43086355        2.36486880        1.21933871
 C            0.65783250        2.63611661        0.38938617
 C           -2.16548315        0.72289981        1.10272664
 C           -1.60420824        1.91043427        0.63171764
 C           -2.20924042       -1.44875970        0.11946670
 C           -2.72652331       -0.15670737        0.18396884
 C           -1.05187308       -3.08266099       -1.21499785
 C           -1.94709343       -2.02551345       -1.13160138
 C            1.17394538       -3.07612623       -1.92751405
 C           -0.20551370       -3.18193100       -2.38026757
 C            2.30051310       -0.91368559       -1.72987669
 C            1.74656924       -1.90073633       -2.53776056
 C            2.48646068        1.50087375       -1.37805525
 C            2.44348098        0.35983612       -2.26703853
 C            0.44060104        2.78102501       -0.98010247
 C            1.48484076        2.44219545       -1.84153397
 C           -1.90811267        2.32057933       -0.66598245
 C           -0.86631748        2.80207061       -1.47380200
 C           -3.35004740        0.38295621       -0.92893097
 C           -3.04228855        1.75976294       -1.25066006
 C           -2.34349422       -1.36119062       -2.30060639
 C           -3.29577607       -0.35073784       -2.17523132
 C           -0.39441393       -2.21502153       -3.43450843
 C            0.86626083       -1.51716737       -3.63186619
 C           -1.56268486       -1.46524996       -3.47000270
 C            1.65911282        0.74528242       -3.43799176
 C            1.20007188        2.11573499       -3.22289802
 C            0.82319800       -0.19000457       -4.05653760
 C           -1.05233606        2.96861182       -2.84988592
 C           -0.00844281        2.52317336       -3.76104625
 C           -3.30877962        1.94257538       -2.66191137
 C           -3.49206805        0.61728118       -3.23986663
 C           -2.32972851        2.64433750       -3.45730363
 C           -1.58547034       -0.44376974       -4.41435338
 C           -0.33755616        0.24807368       -4.69940525
 C           -0.63078510        1.66782953       -4.74588755
 C           -2.65681983        0.52871639       -4.41254497
 C           -2.06953795        1.83867313       -4.63830448
