   70
C70 / DATE: 7/ 1/2024 / Origin: Program Fullerene / C70 from database
 C            1.26998734       -0.09897879        4.44845845
 C            2.53250529       -0.34807887        3.78064636
 C            2.43268842       -1.63429352        3.10903718
 C            0.41899853       -1.25701200        4.22992637
 C            1.08445375       -2.13011482        3.28626765
 C           -0.90745565       -0.78060743        3.89212091
 C            0.50828984        1.08705944        4.09686725
 C           -0.84715058        0.66973036        3.78058323
 C            1.10085921        2.08348626        3.33566306
 C            3.02067100        0.62054990        2.81506621
 C            2.40213590        1.85766254        2.71210931
 C            2.93060119       -1.47185807        1.75999211
 C            3.36410663       -0.09664170        1.60026275
 C            2.24433530       -2.06061210        0.70601004
 C            0.37070501       -2.54687532        2.16933479
 C            1.02538736       -2.71090540        0.94263254
 C           -1.65118972       -1.47704356        2.94599893
 C           -1.02255132       -2.47966624        2.19753760
 C           -2.74500689       -0.81529067        2.39988158
 C           -1.55686310        1.29121601        2.74996272
 C           -2.67389521        0.62900276        2.25335675
 C            0.28565403        2.80958756        2.38068352
 C           -0.93682827        2.27570042        1.97054542
 C            2.38752233        2.52934872        1.42512924
 C            1.19515989        3.35441969        1.39071673
 C            3.17680467        0.50444181        0.35769114
 C            2.76553483        1.84132105        0.27256297
 C            2.53598800       -1.61883976       -0.57983952
 C            3.03253445       -0.32276535       -0.75557545
 C            2.00208005       -2.31693394       -1.65306694
 C            0.32408937       -3.27044470       -0.13181677
 C            0.83355490       -3.14813785       -1.42640771
 C           -1.73368852       -3.13908266        1.20205695
 C           -1.01124247       -3.63167172        0.04210649
 C           -3.40888389       -1.35896826        1.23011392
 C           -2.99621315       -2.58556311        0.73740756
 C           -3.19013603        0.96779657        0.94328043
 C           -3.65754033       -0.25764503        0.30857861
 C           -1.43156632        2.59502954        0.69753985
 C           -2.54024621        1.92154541        0.17496710
 C            0.68752964        3.72445517        0.15993232
 C           -0.71625023        3.47659068       -0.11486833
 C            2.40756474        2.36960420       -0.97176109
 C            1.42449016        3.36072051       -1.03840801
 C            3.05185170        0.25691564       -2.01869761
 C            2.75207563        1.67190028       -2.12690457
 C            1.83876257       -1.65958525       -2.93692203
 C            2.43287300       -0.42550981       -3.14375984
 C           -0.07303767       -2.94459424       -2.55033478
 C            0.45745981       -1.85516731       -3.34653478
 C           -1.91672580       -3.57775292       -1.09233534
 C           -3.09441441       -2.83099014       -0.68676337
 C           -1.43840139       -3.01590317       -2.34053852
 C           -3.48227193       -0.42890629       -1.06691238
 C           -3.23637133       -1.69986132       -1.58547437
 C           -2.25772857       -1.85565070       -2.65266431
 C           -2.77212978        1.91954751       -1.19791708
 C           -3.16718692        0.67990363       -1.84719554
 C           -0.86364103        3.40829534       -1.55883087
 C            0.47107577        3.36847216       -2.13847890
 C           -1.87369167        2.62488373       -2.09474853
 C            1.97705368        1.87012439       -3.34016262
 C            1.71331213        0.56543879       -3.92211037
 C            0.71845052        2.58641254       -3.25898117
 C           -0.34067532       -0.74674869       -3.63219203
 C           -1.67456667       -0.71649604       -3.20643555
 C           -2.31350250        0.50599281       -3.01110730
 C           -1.59622861        1.75116619       -3.22538444
 C            0.27498397        0.42397915       -4.07462483
 C           -0.32484916        1.71289599       -3.77727311
