   70
C70 / DATE: 7/ 1/2024 / Origin: Program Fullerene / C70 from database
 C            1.08842584       -0.07194753        4.66934473
 C            2.34835708       -0.42062212        4.05340179
 C            2.21071099       -1.75812622        3.49380580
 C            0.23328170       -1.24463955        4.58901232
 C            0.82046302       -2.13606821        3.60380987
 C           -1.11764991       -0.77438678        4.37403093
 C            0.33774435        1.04448884        4.12504793
 C           -1.05940489        0.66642551        4.18006254
 C            0.80916665        1.70450037        2.98951326
 C            2.86185964        0.43268708        3.00124700
 C            2.14740372        1.55759539        2.60193608
 C            2.81421134       -1.74450534        2.18121851
 C            3.41089722       -0.43385679        1.97521391
 C            2.15128498       -2.33676475        1.11693326
 C            0.10451871       -2.43947728        2.44405766
 C            0.78536967       -2.64119913        1.22698229
 C           -1.86584973       -1.32298767        3.26262792
 C           -1.28870203       -2.29501127        2.45208668
 C           -1.90618889        0.98898524        3.04858832
 C           -2.56602218       -0.22633623        2.61664246
 C           -0.10964435        2.29451401        2.11096497
 C           -1.43220545        1.83993694        2.07039103
 C            0.34636199        3.12311591        1.08288619
 C            2.58707146        2.19651273        1.45148964
 C            1.69777568        3.10018955        0.74781645
 C            3.52188614        0.05556959        0.67304966
 C            3.30987409        1.41751151        0.45314631
 C            2.68973974       -2.10668868       -0.13778148
 C            3.35808409       -0.83808490       -0.38585191
 C            1.93086857       -2.45158777       -1.31634817
 C            0.06797135       -3.04575954        0.09040996
 C            0.65744527       -2.98755225       -1.18144247
 C           -2.00393259       -2.64841456        1.32116429
 C           -1.30554123       -3.23497395        0.19983200
 C           -2.90661197       -0.37594044        1.26972905
 C           -2.93986857       -1.67404644        0.77840290
 C           -2.11117632        1.86618125        0.86374480
 C           -2.67842809        0.68424918        0.37622899
 C           -0.57264206        3.60265781        0.14896603
 C           -1.84473008        2.91467588        0.00649400
 C           -0.11094138        3.95233403       -1.18205593
 C            2.09828371        3.08678927       -0.65245387
 C            2.88283303        1.88326343       -0.85787286
 C            1.18093956        3.46049091       -1.61922664
 C            2.91511693       -0.35514464       -1.68617972
 C            2.15508121       -1.41576319       -2.31375857
 C            2.49100490        0.95710684       -1.82015280
 C            1.11937521       -1.10305978       -3.18368404
 C           -0.13897315       -3.02280645       -2.32742753
 C            0.17368706       -2.10268472       -3.41029937
 C           -2.15303157       -3.02484549       -0.95638898
 C           -3.01937593       -1.89627051       -0.64519073
 C           -1.58662009       -3.09338578       -2.21513696
 C           -2.78199217        0.47672523       -1.01343970
 C           -3.05275563       -0.81045095       -1.51123543
 C           -2.13507536        2.77366345       -1.40310044
 C           -1.10640058        3.49511914       -2.13483970
 C           -2.56336705        1.54697404       -1.89985647
 C            0.94722959        2.56672984       -2.74149760
 C            1.44714539        1.26188573       -2.69834138
 C            0.79211924        0.24412782       -3.40882871
 C           -0.41092053        2.80266853       -3.20356174
 C           -2.31981968        1.29488159       -3.24845346
 C           -0.32895794        0.57539881       -4.17438820
 C           -1.07622770        1.76817728       -3.83516611
 C           -1.05886042       -1.80319048       -4.10546956
 C           -2.15015262       -2.25746835       -3.26164493
 C           -2.91074902       -1.08408796       -2.86943908
 C           -1.32984925       -0.43197454       -4.46739738
 C           -2.55092072       -0.02602251       -3.78236762
