   70
C70 / DATE: 7/ 1/2024 / Origin: Program Fullerene / C70 from database
 C            1.18019727       -0.06468433        4.58511705
 C            2.48445372       -0.29631066        3.99479549
 C            2.50159213       -1.66103152        3.50205072
 C            0.37275485       -1.25476585        4.35545713
 C            1.13753980       -2.15946334        3.53104165
 C           -0.91776316       -0.82671067        3.87871984
 C            0.40366021        1.08532546        4.15480652
 C           -0.94789037        0.62614686        3.90134044
 C            0.96783822        2.01418682        3.29562231
 C            2.93377905        0.56491133        2.91584062
 C            2.24870016        1.74030879        2.64879616
 C            3.19910533       -1.66574988        2.23178559
 C            3.34187204       -0.28134108        1.80543914
 C            2.79986996       -2.59475817        1.28944808
 C            0.58694147       -2.65252131        2.34785370
 C            1.47277892       -3.18595466        1.41804252
 C           -1.49835556       -1.47296440        2.79358605
 C           -0.68213261       -2.21802272        1.92204632
 C           -2.66729966       -0.89661978        2.31002776
 C           -1.74984183        1.26567197        2.95893993
 C           -2.84327717        0.53348020        2.51024214
 C            0.11699227        2.68015268        2.32586285
 C           -1.19262520        2.24687910        2.11864341
 C            2.15053618        2.19783794        1.27709142
 C            0.93964984        2.98886727        1.17325607
 C            3.00078287        0.07203426        0.49454129
 C            2.48808452        1.34579076        0.22480598
 C            2.95594438       -2.26043559       -0.10787631
 C            2.94785770       -0.92013784       -0.49063841
 C            1.01288989       -3.49985009        0.08144553
 C            2.11400239       -3.19446087       -0.82183580
 C           -1.08141788       -2.42137858        0.58592239
 C           -0.28326363       -3.16405163       -0.29199712
 C           -3.11455064       -1.19824258        0.97002440
 C           -2.22849885       -1.79550298        0.09181469
 C           -3.64215306        1.04175737        1.42167940
 C           -3.89344755       -0.06349997        0.50887843
 C           -1.81834389        2.58470401        0.90822444
 C           -3.10905249        2.13179823        0.63959112
 C            0.33291390        3.08217105       -0.06468709
 C           -1.05912831        3.12815798       -0.13575262
 C            1.98605437        1.63412379       -1.04563549
 C            1.05395321        2.67032067       -1.18017726
 C            2.53336727       -0.59527758       -1.78386596
 C            2.17668503        0.71927426       -2.08494734
 C            1.82710276       -2.92684982       -2.14681013
 C            2.19561458       -1.62289163       -2.67233287
 C           -0.59955030       -3.18797498       -1.65112030
 C            0.48497320       -3.20754388       -2.61712778
 C           -2.33686009       -1.52012761       -1.26982169
 C           -1.62552921       -2.29700423       -2.16404365
 C           -3.67110780        0.43111165       -0.83825417
 C           -3.49435008        1.86856725       -0.73431150
 C           -2.83947216       -0.28951263       -1.69274052
 C           -1.65606568        3.32389167       -1.38186489
 C           -2.80730132        2.51542697       -1.74384254
 C            0.58983074        3.03779581       -2.43430055
 C           -0.80866245        3.40096975       -2.56376512
 C            1.70724436        1.01399512       -3.36366836
 C            0.93486152        2.22371341       -3.57878252
 C            1.30781985       -1.34975893       -3.79052526
 C            0.17573907       -2.25049495       -3.66433246
 C           -1.13320718       -1.68401522       -3.38562334
 C            1.05292561       -0.03209139       -4.12610235
 C           -2.24887896        0.36320792       -2.78064066
 C           -2.41093241        1.74486612       -2.90758870
 C           -1.39128118        2.52907000       -3.57186632
 C           -0.30871735        1.83620279       -4.23162426
 C           -1.32614283       -0.31891960       -3.58698665
 C           -0.32980779        0.38820168       -4.26729060
