   70
C70 / DATE: 7/ 1/2024 / Origin: Program Fullerene / C70 from database
 C            1.23574339       -0.09888198        4.16525064
 C            2.53520338       -0.40035483        3.61328833
 C            2.48180598       -1.74771302        3.06412584
 C            0.40043907       -1.27667458        3.99251120
 C            1.09898973       -2.18162532        3.11090295
 C           -0.91219549       -0.82228097        3.59667314
 C            0.49970536        1.03117838        3.63462153
 C           -0.88962878        0.63246066        3.56278493
 C            1.02249982        1.78163048        2.58826297
 C            3.06629436        0.46140655        2.57795310
 C            2.31415699        1.53338798        2.09494547
 C            3.15713306       -1.72241020        1.77657981
 C            3.74021035       -0.40031214        1.62733521
 C            2.53979225       -2.31403447        0.67659574
 C            0.48959535       -2.56907961        1.92390222
 C            1.29748863       -2.93775360        0.85314122
 C           -1.58975855       -1.48796000        2.58180437
 C           -0.87417137       -2.31902605        1.70532972
 C           -2.75566442       -0.88409351        2.13608527
 C           -1.73259647        1.27626368        2.66154703
 C           -2.84716174        0.56498902        2.21807865
 C            0.14972864        2.58693371        1.85919295
 C           -1.22667535        2.31794614        1.87305901
 C            0.68072044        3.48596199        0.93953278
 C            2.72234740        2.14262640        0.90571605
 C            2.01659889        3.24275526        0.42888582
 C            3.96764518        0.08502951        0.35069458
 C            3.56036723        1.44486025        0.03185577
 C            2.96471525       -1.95594243       -0.60860249
 C            3.63156738       -0.74750566       -0.79367636
 C            2.32881649       -2.50960569       -1.71447824
 C            0.72022225       -3.63255970       -0.19680895
 C            1.32977411       -3.53498355       -1.50492665
 C           -1.46417468       -2.75570427        0.50801528
 C           -0.72056290       -3.55353998       -0.36611525
 C           -3.34952874       -1.29868702        0.88437686
 C           -2.67423754       -2.20204059        0.07269978
 C           -3.60910026        1.03246068        1.07361436
 C           -3.99405675       -0.13313073        0.29302380
 C           -2.05690475        2.91931991        0.92721719
 C           -3.21828204        2.19827449        0.43138829
 C           -0.13826393        3.97445052       -0.15810127
 C           -1.47439382        3.61681836       -0.20404022
 C            1.99743243        3.49944749       -1.00146485
 C            0.64246202        3.85311560       -1.37529633
 C            3.31344438        1.49680674       -1.40225370
 C            3.19052619        0.12838099       -1.86749873
 C            2.44716148        2.45460851       -1.90022759
 C            1.83798460       -1.61287811       -2.75273028
 C            2.08875679       -0.25333469       -2.62903367
 C            0.27255577       -3.32954521       -2.47594801
 C           -0.99544345       -3.51169221       -1.79540275
 C            0.51902974       -2.06296151       -3.14544366
 C           -3.04127107       -2.30090872       -1.26831231
 C           -2.07392175       -2.76746145       -2.23902539
 C           -4.09008758       -0.03652988       -1.08907043
 C           -3.74751727       -1.19537383       -1.89331236
 C           -3.18476067        2.24906619       -1.02459619
 C           -1.98122803        2.96995111       -1.40332317
 C           -3.55555200        1.13536674       -1.76553657
 C            0.19893374        2.91662026       -2.39443487
 C            1.30163920        2.02107595       -2.68734936
 C            1.05102426        0.65869845       -2.84480617
 C           -1.08271368        2.39369937       -2.30354871
 C           -0.52349272       -1.14738233       -3.23367279
 C           -1.81893497       -1.64926050       -3.13503352
 C           -2.93126405       -0.73705283       -3.00832400
 C           -2.65209763        0.66376199       -2.79927146
 C           -0.27226320        0.20727452       -2.96322375
 C           -1.33460592        1.11365327       -2.79610177
