   70
C70 / DATE: 7/ 1/2024 / Origin: Program Fullerene / C70 from database
 C            1.56569610        0.03707138        4.42688611
 C            0.77235799       -1.15420505        4.18473967
 C            1.51488645       -2.00260406        3.28519587
 C            2.67570257        0.02463577        3.48950372
 C            2.67055122       -1.25122515        2.81488331
 C            2.59120342        1.21822074        2.68175948
 C            0.73894973        1.18709649        4.11232003
 C            1.44241356        1.98479297        3.12929508
 C           -0.54798572       -0.73988246        3.77740429
 C           -0.58724973        0.71221130        3.77154247
 C           -1.16502082       -1.40663732        2.73045452
 C            0.82634082       -2.76819286        2.35201005
 C           -0.52749080       -2.48112181        2.08461785
 C            1.60796145       -3.31840372        1.34604015
 C            2.97624871       -1.30728736        1.45723781
 C            2.69057029       -2.50827969        0.81224834
 C            2.81551097        1.13012393        1.31303452
 C            3.01223008       -0.12129995        0.70295353
 C            2.40387026        2.20459504        0.52714928
 C            0.69408591        2.64042598        2.16090162
 C            1.32850037        2.98383820        0.96712067
 C           -1.26464847        1.35076524        2.73579210
 C           -0.69748808        2.49301559        2.16862646
 C           -2.22112965       -0.76811076        2.09783167
 C           -2.21755646        0.63184210        2.00577411
 C           -3.03804339       -1.53020826        1.28363288
 C           -1.18452339       -3.11547712        1.01160477
 C           -2.46362131       -2.69719730        0.64425701
 C            0.97227130       -4.00039519        0.24682113
 C           -0.45069364       -3.82897077        0.06685429
 C            2.58789146       -2.54384138       -0.63373796
 C            1.63303557       -3.57769374       -0.97735751
 C            3.02596720       -0.19461031       -0.69554997
 C            2.55795541       -1.34634530       -1.33019045
 C            2.79173044        2.23181558       -0.80734666
 C            3.16689145        0.97767903       -1.43083334
 C            2.03212712        3.00996142       -1.77353003
 C            0.66378235        3.82302444        0.07972690
 C            0.91320210        3.70556400       -1.34429753
 C           -1.45055822        3.21521375        1.25366006
 C           -0.76355905        4.01373751        0.25306033
 C           -2.95930216        1.28757354        1.01034737
 C           -2.57159787        2.56183603        0.60323630
 C           -3.90038607       -0.87153265        0.33087370
 C           -3.72229066        0.54562037        0.11328451
 C           -2.80303335       -2.62952611       -0.77135328
 C           -3.75365954       -1.54658128       -0.94789882
 C           -0.68335323       -3.57384854       -1.34585052
 C            0.60550742       -3.27031299       -1.94961145
 C           -1.80278429       -2.83413571       -1.71950801
 C            1.79371251       -1.24603480       -2.50080729
 C            0.72680619       -2.12421129       -2.72334834
 C            2.70040246        1.00610942       -2.80320091
 C            1.93280136        2.22610600       -2.99084610
 C            1.89598946       -0.10072948       -3.28326087
 C            0.61458186        1.84778497       -3.46976536
 C            0.69265342        0.45738963       -3.87718001
 C           -0.36766860        3.44165522       -1.98403437
 C           -1.40202859        3.77263288       -1.03159812
 C           -2.47275075        2.82681818       -0.82407213
 C           -0.50936879        2.31135648       -2.78568332
 C           -3.51608867        0.75855149       -1.31081715
 C           -3.49557754       -0.54061568       -1.95961153
 C           -2.63517938        1.76406809       -1.70632037
 C           -1.63615980        1.48282344       -2.65404575
 C           -1.71779643       -1.99494765       -2.83481331
 C           -0.41008848       -1.66719348       -3.38123824
 C           -0.46349655       -0.30205456       -3.87723350
 C           -2.54092355       -0.79447744       -2.92735102
 C           -1.69128592        0.29223498       -3.38038877
