   70
C70 / DATE: 7/ 1/2024 / Origin: Program Fullerene / C70 from database
 C            1.14897791        0.01888121        4.32027003
 C            2.45766682       -0.30228712        3.79946153
 C            2.46007165       -1.71747222        3.47775549
 C            0.32611771       -1.17716956        4.21054322
 C            1.07826258       -2.15952719        3.46536369
 C           -0.95929605       -0.77078894        3.69977700
 C            0.40660765        1.10657388        3.71343720
 C           -0.97243681        0.68157802        3.63024103
 C            0.93830120        1.80422039        2.63717269
 C            2.92800922        0.40506018        2.62723889
 C            2.16798064        1.42679840        2.07573772
 C            3.23914806       -1.89414088        2.27008164
 C            3.52156026       -0.56702528        1.72830837
 C            2.84323857       -2.89055687        1.39462817
 C            0.55398044       -2.67974806        2.28060748
 C            1.44033890       -3.29743659        1.39831645
 C           -1.53054704       -1.47665409        2.65018308
 C           -0.70677666       -2.25562606        1.82002545
 C           -2.69631898       -0.93359253        2.13170939
 C           -1.80322796        1.27569410        2.68508414
 C           -2.86795561        0.50860715        2.21472658
 C            0.07282962        2.59958128        1.88584591
 C           -1.30090684        2.30967290        1.88269486
 C            0.62414945        3.40116325        0.88735037
 C            2.45590290        1.81410358        0.77446395
 C            1.89908779        3.00095117        0.32400800
 C            3.44212736       -0.35286352        0.34698298
 C            2.90261568        0.84733537       -0.13865566
 C            3.25883915       -2.77416311        0.01486710
 C            3.54274604       -1.44898458       -0.50604203
 C            1.04234582       -3.52561675        0.02444854
 C            2.21518930       -3.35631440       -0.80644784
 C           -1.08543017       -2.50062524        0.48668833
 C           -0.15578991       -2.99905896       -0.42855477
 C           -3.17722456       -1.35992445        0.83833919
 C           -2.35554885       -2.13430255        0.02938671
 C           -3.62232929        0.93801862        1.05146494
 C           -3.91994687       -0.24684186        0.26212490
 C           -2.12802246        2.87290947        0.91011873
 C           -3.27258763        2.12208577        0.41915905
 C           -0.20510656        3.90346717       -0.19434629
 C           -1.54741519        3.56654191       -0.22489634
 C            1.87771955        3.28100612       -1.09231123
 C            0.56478650        3.81247577       -1.42210412
 C            2.61975375        0.98153596       -1.50888039
 C            2.16559060        2.20017076       -2.00994493
 C            2.95621476       -1.37816144       -1.82896246
 C            2.08967660       -2.53809226       -1.99412555
 C            2.51927235       -0.15333906       -2.31769041
 C           -0.29624432       -2.70661121       -1.78645661
 C            0.82618905       -2.33633232       -2.53714613
 C           -2.64693203       -2.22296668       -1.33142830
 C           -1.56778611       -2.44080968       -2.27803279
 C           -4.02596335       -0.14851496       -1.11796720
 C           -3.56324445       -1.26265150       -1.92446171
 C           -3.26390447        2.19221437       -1.03508408
 C           -2.10265755        2.96973746       -1.43091135
 C           -3.62156320        1.08135864       -1.78592987
 C            0.03652075        3.02928011       -2.52507831
 C            1.12342908        2.20538405       -3.02244979
 C           -1.24667099        2.49301695       -2.42527994
 C            1.59048940       -0.17058228       -3.35755883
 C            0.70446642       -1.31620376       -3.47369186
 C            0.82052960        1.02158201       -3.67011081
 C           -1.72992942       -1.49170532       -3.36917693
 C           -2.92980640       -0.71887146       -3.11243380
 C           -2.80941871        0.71761639       -2.93333842
 C           -1.56811148        1.32419643       -3.12400667
 C           -0.61059978       -0.83132341       -3.84936303
 C           -0.57103345        0.62406730       -3.80574435
