   70
C70 / DATE: 7/ 1/2024 / Origin: Program Fullerene / C70 from database
 C            1.26564032       -0.05751590        4.45510593
 C            2.58473142       -0.31162917        3.90870027
 C            2.57416565       -1.64476905        3.33175057
 C            0.44502520       -1.23018484        4.19596956
 C            1.20663139       -2.13744089        3.36814317
 C           -0.83428550       -0.77471040        3.70765935
 C            0.52529585        1.10911500        4.00372249
 C           -0.81161863        0.67160768        3.64520397
 C            1.15470787        2.06373657        3.21856625
 C            3.12006665        0.59816550        2.91298485
 C            2.49555498        1.81994011        2.69694723
 C            3.25480391       -1.58499196        2.05084884
 C            3.54107922       -0.18761519        1.76307468
 C            2.79083074       -2.39376006        1.02828285
 C            0.64002181       -2.62725738        2.19263851
 C            1.49669241       -3.04264956        1.17987490
 C           -1.43879455       -1.44195238        2.65476311
 C           -0.70133190       -2.35530433        1.88431843
 C           -2.53789441       -0.82376374        2.07321061
 C           -1.49211946        1.27631072        2.59041648
 C           -2.56147209        0.57954926        2.02878474
 C            0.39104430        2.73957685        2.18343309
 C           -0.86544715        2.27029800        1.82610638
 C            2.56125149        2.41201910        1.37464190
 C            1.31550147        3.12317244        1.13609265
 C            3.33235842        0.31944169        0.47792553
 C            3.12418615        1.69467203        0.32254044
 C            2.86605553       -1.91013865       -0.33592428
 C            3.04314598       -0.55546592       -0.58082638
 C            0.97154555       -3.27329797       -0.14898678
 C            1.86692373       -2.62638544       -1.09897863
 C           -1.24588480       -2.82146618        0.67592883
 C           -0.39796592       -3.20887198       -0.36974957
 C           -3.28947667       -1.57693212        1.18334327
 C           -2.60204400       -2.59968734        0.41934176
 C           -4.25845606       -0.93313396        0.32101732
 C           -3.32823291        1.24429927        1.07886716
 C           -4.26579197        0.51033840        0.25317228
 C           -1.35391284        2.57434927        0.55330370
 C           -2.66828391        2.22926625        0.24499976
 C            0.86913539        3.22563136       -0.17760300
 C           -0.45317149        2.86116269       -0.48391455
 C            2.94707928        2.21029300       -0.95496093
 C            1.84727361        3.13898820       -1.16269866
 C            2.66972258       -0.04497455       -1.82388998
 C            2.92787963        1.29816450       -2.07677976
 C            1.32210920       -2.02846685       -2.22902934
 C            1.79492342       -0.77865548       -2.64722379
 C           -0.82305848       -3.08863948       -1.69014395
 C            0.07071540       -2.47018792       -2.65804546
 C           -3.08157109       -2.51824522       -0.95228192
 C           -4.05632719       -1.44271653       -1.02324574
 C           -2.17309027       -2.65081714       -1.98810765
 C           -4.02817138        0.89580836       -1.12802114
 C           -3.01242286        1.93064807       -1.13226033
 C           -3.78468498       -0.31009561       -1.89305922
 C           -0.82775919        2.59335270       -1.81111876
 C           -1.98674135        1.86354514       -2.06109412
 C            1.45708890        3.04870777       -2.55052997
 C            2.24785787        1.98690550       -3.15461217
 C            0.07092292        2.78315658       -2.85382670
 C            1.20331871       -0.18521928       -3.76467395
 C            1.37476991        1.22987780       -4.01875231
 C            0.05404258        1.83796629       -3.95127620
 C           -0.73498213       -1.64179083       -3.54124356
 C           -2.07603523       -1.59198598       -2.98154475
 C           -2.67475494       -0.35760956       -2.73014070
 C           -1.95643996        0.81301815       -2.98776697
 C           -0.18324147       -0.48448378       -4.06404157
 C           -0.91863464        0.75972836       -3.91532804
