   70
C70 / DATE: 7/ 1/2024 / Origin: Program Fullerene / C70 from database
 C            1.63674861        0.01958418        4.71528592
 C            0.81537802       -1.16619306        4.56079207
 C            1.46318668       -2.03402551        3.59612102
 C            2.68488273       -0.03540853        3.70987901
 C            2.55383672       -1.28026085        2.99393388
 C            2.62859260        1.18638171        2.94829061
 C            0.80561488        1.17186054        4.41591437
 C            1.51993788        1.98302017        3.45535657
 C           -0.54113141       -0.73846575        4.29089804
 C           -0.50655606        0.69510307        4.04011766
 C           -1.31851022       -1.53777739        3.47093491
 C            0.67503042       -2.82252379        2.76168066
 C           -0.71512515       -2.70001989        2.82848590
 C            1.25507433       -3.27283470        1.58048169
 C            2.67547844       -1.29020345        1.60699447
 C            2.30734046       -2.46773647        0.97547597
 C            2.81296033        1.14031981        1.56886426
 C            2.62997605       -0.07929376        0.88989108
 C            2.55734624        2.32707985        0.89884809
 C            0.79191851        2.71207988        2.52274308
 C            1.52208743        3.19124417        1.44242739
 C           -1.07434944        1.20679972        2.87497603
 C           -0.55898401        2.38672224        2.32454515
 C           -2.17331533       -0.90399059        2.48489152
 C           -1.93212550        0.40820100        2.11103772
 C           -1.52790615       -2.99890434        1.65927171
 C           -2.43809915       -1.88102857        1.45153920
 C            0.42467551       -3.78882541        0.50517866
 C           -0.95901913       -3.60483094        0.54509910
 C            2.10655847       -2.48391741       -0.45393723
 C            1.15871574       -3.54654077       -0.73080893
 C            2.26391643       -0.08048754       -0.47519071
 C            1.99753847       -1.28127545       -1.13854892
 C            2.40359362        2.32252725       -0.53511291
 C            2.17757688        1.11811713       -1.18957633
 C            0.83907265        3.82023626        0.33169646
 C            1.58520762        3.47511318       -0.86800921
 C           -1.25787673        2.98083236        1.27496450
 C           -0.54736450        3.79812871        0.30503583
 C           -2.32814375        0.83198917        0.84499390
 C           -2.22703743        2.17982003        0.54649636
 C           -2.68319898       -1.45790704        0.14828207
 C           -2.52259232       -0.10416919       -0.18053201
 C           -1.66553530       -3.53229278       -0.65174052
 C           -2.58379157       -2.41756126       -0.84734960
 C            0.47091720       -3.51956216       -1.92965511
 C           -0.96013392       -3.74574199       -1.89950264
 C            1.37152209       -1.26676488       -2.38794160
 C            0.71078799       -2.41447704       -2.84311448
 C            1.57776822        1.14120081       -2.45326455
 C            1.17650991       -0.05697986       -3.05881003
 C            0.94235684        3.48380730       -2.09287869
 C            1.18716395        2.37325653       -2.99090696
 C           -1.22959486        3.66665287       -0.97018526
 C           -2.22130335        2.60669787       -0.83505732
 C           -0.48990893        3.74875342       -2.14268230
 C           -2.48381033        0.30139176       -1.52990902
 C           -2.36208793        1.66581297       -1.85123169
 C           -2.51305001       -2.01025327       -2.23233540
 C           -1.56380908       -2.88688214       -2.90005342
 C           -0.48740706       -2.27209006       -3.65313385
 C           -2.48894691       -0.65947305       -2.55660617
 C            0.30509184       -0.03793319       -4.15249609
 C           -0.73864271       -1.03605310       -4.21603777
 C           -1.94089545       -0.33670857       -3.79454226
 C            0.12762672        2.43157903       -3.97228132
 C           -1.00186789        3.07573289       -3.32175315
 C           -2.01867334        2.05506792       -3.14605538
 C           -0.35186766        1.19446675       -4.53411935
 C           -1.74932888        1.04981321       -4.14606468
