   70
C70 / DATE: 7/ 1/2024 / Origin: Program Fullerene / C70 from database
 C            1.51407202       -0.08501738        4.78134726
 C            0.69865889       -1.25828867        4.54233112
 C            1.30058620       -2.02312893        3.46185936
 C            2.63741397       -0.14049277        3.86722831
 C            2.47533646       -1.30278845        3.00762642
 C            2.74181904        1.15796654        3.23609598
 C            0.71926260        1.07735867        4.42114874
 C            1.46138840        1.82562522        3.42272355
 C           -0.67006339       -0.81105616        4.37592008
 C           -0.61482025        0.61406531        4.08587811
 C           -1.50635700       -1.60138159        3.60640383
 C            0.45788005       -2.59583931        2.51998754
 C           -0.90645803       -2.65822909        2.80801523
 C            0.87468751       -2.67060666        1.19110820
 C            2.70433466       -1.15086317        1.64028312
 C            1.87934262       -1.81356194        0.72269198
 C            3.31473653        1.20526166        1.97916222
 C            3.42793200       -0.03678054        1.22472267
 C            2.82669463        2.19341148        1.04173483
 C            0.78320419        2.30910028        2.30362711
 C            1.51345942        2.64419457        1.15785410
 C           -1.21595440        1.09403190        2.92384976
 C           -0.59876965        2.12437294        2.21056150
 C           -2.47277088       -0.95353038        2.74258915
 C           -2.24345702        0.35642966        2.32581601
 C           -1.85003565       -2.97804964        1.74961639
 C           -2.87902476       -1.94663486        1.76565373
 C            0.07024770       -3.34902418        0.28519908
 C           -1.35862338       -3.43857623        0.53669225
 C            0.25774178       -3.14241477       -1.13374226
 C            2.00114012       -1.55138630       -0.65465787
 C            1.27893698       -2.31503747       -1.58264358
 C            3.44519124        0.32298438       -0.17884716
 C            3.30822896        1.76844097       -0.25326645
 C            2.75834742       -0.45832037       -1.09856236
 C            2.71902318        2.31181405       -1.37865297
 C            0.84751088        3.10217094        0.01570811
 C            1.49760850        3.08663944       -1.21861015
 C           -1.28530901        2.71519790        1.16119678
 C           -0.53302680        3.26139727        0.04714750
 C           -2.82492685        0.80922482        1.13774565
 C           -2.45813456        2.04804183        0.62635211
 C           -3.43439697       -1.51142001        0.57263569
 C           -3.50799334       -0.08310395        0.31389026
 C           -2.04968916       -3.09744039       -0.69616968
 C           -1.05609076       -3.02636250       -1.74955280
 C           -3.07748419       -2.16959941       -0.67505413
 C           -1.21091332       -2.14173100       -2.81410690
 C            1.22302470       -1.90986261       -2.91473014
 C           -0.07141044       -1.89915655       -3.57946682
 C            2.52964300        0.07344237       -2.36691144
 C            2.52656207        1.45801331       -2.53429336
 C            1.93809617       -0.72261302       -3.33455948
 C            0.72063993        2.93391066       -2.44326783
 C            1.49040522        2.07880246       -3.33883554
 C           -1.31207167        3.05353751       -1.16451393
 C           -2.48913298        2.27358346       -0.81196693
 C           -0.66647616        2.80584715       -2.37115601
 C           -3.47919926        0.10330484       -1.12770351
 C           -3.15804587       -1.18120847       -1.73373422
 C           -2.26857365       -1.21281479       -2.80476004
 C           -2.92842327        1.26387037       -1.66725469
 C           -1.34830249        2.09920581       -3.35770303
 C           -2.20955875       -0.06755060       -3.59748087
 C           -2.44540912        1.22516923       -2.97372934
 C           -0.06135568       -0.84286319       -4.56949903
 C            1.17358232       -0.09473518       -4.40277136
 C            0.83549059        1.31413797       -4.29241386
 C           -1.15568320        0.09715025       -4.57739913
 C           -0.60428803        1.43376535       -4.41438685
