   70
C70 / DATE: 7/ 1/2024 / Origin: Program Fullerene / C70 from database
 C            1.71177748       -0.04376423        4.64143970
 C            0.86774017       -1.21771388        4.51186086
 C            1.34567068       -1.99581808        3.37864294
 C            2.66477374       -0.06956187        3.55126389
 C            2.52879249       -1.33970532        2.85726829
 C            2.49996747        1.14562907        2.76943423
 C            0.87125840        1.12372790        4.45622577
 C            1.32530899        1.83097888        3.26566518
 C           -0.51362466       -0.77342675        4.51789870
 C           -0.51045059        0.68534404        4.51573470
 C           -1.42638845       -1.46108361        3.72709671
 C            0.42263349       -2.51862207        2.47944300
 C           -0.93770700       -2.46443229        2.79369766
 C            0.81585231       -2.76246397        1.16024982
 C            2.73498721       -1.33298312        1.48490388
 C            2.00223732       -2.20211647        0.67037098
 C            2.68136890        1.04195340        1.40020450
 C            3.20390022       -0.15203351        0.92355284
 C            1.89414483        1.80768337        0.53473867
 C            0.37573271        2.29419006        2.35848194
 C            0.67152972        2.31753213        0.98724752
 C           -1.43553800        1.36850569        3.74104906
 C           -0.95065424        2.33706049        2.76838984
 C           -2.50242350       -0.73949696        3.06458870
 C           -2.53297120        0.64524249        3.11824928
 C           -1.92726677       -2.58443944        1.73741262
 C           -2.77533256       -1.40508697        1.79880482
 C           -0.11228436       -3.29093707        0.27251674
 C           -1.52678449       -3.05655423        0.50213019
 C            0.11451567       -3.17417164       -1.15131114
 C            2.27443738       -2.19652160       -0.70762109
 C            1.32731570       -2.69129701       -1.62202650
 C            3.61760164       -0.18566009       -0.38798409
 C            3.32089626       -1.37988256       -1.14798870
 C            2.15409827        1.71345010       -0.83771666
 C            3.24112537        0.93030172       -1.22923206
 C            1.14952933        2.03324278       -1.76368244
 C           -0.31619936        2.68666664        0.06181004
 C           -0.02228952        2.66050810       -1.31152935
 C           -1.98432262        2.49309913        1.77846740
 C           -2.91507797        1.38703863        1.93169469
 C           -1.64562797        2.85933606        0.48851250
 C           -2.99483207       -0.64379370        0.64739996
 C           -3.31666585        0.71298140        0.77993365
 C           -2.05464781       -2.42415360       -0.69157251
 C           -1.11549502       -2.68487560       -1.76050564
 C           -2.63730489       -1.16671415       -0.60573890
 C           -1.02496311       -1.79132523       -2.82203210
 C            1.36689383       -2.31006010       -2.96375447
 C            0.14707327       -1.81025935       -3.58166340
 C            3.42919496       -0.99813124       -2.53986132
 C            3.34167250        0.45767606       -2.58952858
 C            2.47405888       -1.53284860       -3.47690282
 C            1.28094837        1.66840118       -3.12162633
 C            0.50229059       -0.67113314       -4.41707935
 C            2.29474277        0.80255273       -3.51499845
 C            1.91760958       -0.41380081       -4.21452692
 C            0.16074975        1.68895372       -3.94269777
 C           -0.34838991        0.42063288       -4.44173721
 C           -1.00698608        3.03641226       -2.22907805
 C           -0.97828695        2.48404432       -3.56266995
 C           -2.66543332        2.71043073       -0.43693065
 C           -3.45257812        1.48897038       -0.36630559
 C           -2.39086194        2.98146734       -1.82237724
 C           -2.67434851       -0.36070384       -1.74402194
 C           -1.85472676       -0.66152932       -2.84892103
 C           -1.66672851        0.27836510       -3.86520240
 C           -2.15271650        1.63269883       -3.70235067
 C           -3.33867840        0.85874747       -1.66225692
 C           -3.02384324        1.92327637       -2.59294903
