   70
C70 / DATE: 7/ 1/2024 / Origin: Program Fullerene / C70 from database
 C            1.53540171        0.02504205        4.72169439
 C            0.71917492       -1.17403916        4.73303498
 C            1.25220734       -2.09636195        3.74673319
 C            2.57319397       -0.15709276        3.72381748
 C            2.44606282       -1.48821921        3.17127561
 C            2.50480096        0.95746334        2.80694023
 C            0.69193384        1.12510822        4.28377050
 C            1.29134955        1.69889283        3.10479042
 C           -0.66012577       -0.76167042        4.60690633
 C           -0.66151627        0.63526832        4.18222875
 C           -1.54151969       -1.63417332        3.99138317
 C            0.37111176       -2.79044230        2.91326979
 C           -1.00894529       -2.66390365        3.10079834
 C            0.84212983       -3.25731891        1.68769070
 C            2.69731590       -1.66627860        1.81570852
 C            2.11517904       -2.76506682        1.19251793
 C            2.80123124        0.73077118        1.46949450
 C            3.09282675       -0.56780617        1.03900906
 C            2.30554839        1.63932580        0.54052479
 C            0.48151084        2.06494905        2.03635100
 C            1.10946627        2.30310530        0.82693756
 C           -1.44661356        1.01242705        3.09090137
 C           -0.87987903        1.73083459        2.02042374
 C           -2.70501231       -1.06401796        3.34573929
 C           -2.62709887        0.31262561        2.88837347
 C           -1.89522241       -2.75553440        1.94712873
 C           -3.02167813       -1.89001239        2.19560018
 C           -0.06468387       -3.33443257        0.55004990
 C           -1.34399762       -2.81167480        0.66823306
 C            2.08233679       -2.84025161       -0.25543481
 C            0.70563788       -3.09160051       -0.65124539
 C            3.37164426       -0.76444945       -0.31268695
 C            2.82856110       -1.93273516       -0.98794603
 C            2.75582149        1.56899092       -0.77576455
 C            3.27073980        0.36162054       -1.23369102
 C            2.24810245        2.47146398       -1.70371906
 C            0.37259269        2.84995572       -0.20576817
 C            1.07084513        3.23659276       -1.33959319
 C           -1.61609904        1.93699031        0.83276419
 C           -0.99553025        2.55903614       -0.27326435
 C           -3.26464863        0.36203723        1.59698326
 C           -3.43507830       -1.00772198        1.13755518
 C           -2.85448387        1.29918377        0.66034915
 C           -1.88595961       -2.04259344       -0.37981172
 C           -3.05314117       -1.28891424       -0.16487648
 C            0.15381341       -2.34396429       -1.68259139
 C           -1.16648433       -1.88543919       -1.58219376
 C            2.32253244       -1.49756211       -2.27668719
 C            2.82328786       -0.15636978       -2.51752246
 C            1.01247081       -1.79557654       -2.63669882
 C            2.06415158        2.04081369       -3.07956777
 C            2.10963865        0.67632232       -3.37529617
 C            0.35050418        3.55050767       -2.54960623
 C            1.03770087        2.89664074       -3.65387313
 C           -1.67680822        2.65582000       -1.50072376
 C           -1.04677096        3.19558880       -2.62156843
 C           -3.31057458        1.07304487       -0.62972835
 C           -3.38458349       -0.30749104       -1.08264348
 C           -2.79006856        1.85924136       -1.71842671
 C           -1.72122463       -1.15948329       -2.64479532
 C           -2.82894243       -0.35650430       -2.41170256
 C           -2.83464629        1.01259159       -2.89923253
 C            0.47684086       -1.12795654       -3.72568508
 C            1.12481502        0.09382943       -4.17823731
 C           -0.95391376       -0.91099524       -3.78030646
 C            0.03312058        2.31996427       -4.52149781
 C           -1.26632809        2.57194283       -3.91953744
 C           -2.03691451        1.34126778       -3.98301181
 C            0.11379152        0.90812337       -4.83049770
 C           -1.18090093        0.31027074       -4.54354541
