   70
C70 / DATE: 7/ 1/2024 / Origin: Program Fullerene / C70 from database
 C            1.07266265        0.01033971        5.37882419
 C            0.38215388       -1.16465780        4.87077004
 C            1.35096758       -1.99560898        4.20040141
 C            2.41348231        0.01035045        4.81946990
 C            2.59612099       -1.24267839        4.11829067
 C            2.58809019        1.24756525        4.08596304
 C            0.38297415        1.18599941        4.87269380
 C            1.34955697        2.00680942        4.18485430
 C           -0.76142933       -0.71276091        4.11103600
 C           -0.77477510        0.73640930        4.12903359
 C           -1.09491241       -1.33454280        2.91105378
 C            1.04290882       -2.47527846        2.86206394
 C           -0.18681976       -2.19011792        2.27064180
 C            2.98851038       -1.22537161        2.72050978
 C            2.23223123       -2.27987839        2.06731543
 C            2.95508079        1.20016584        2.67855653
 C            3.17368898       -0.01826703        2.03507747
 C            1.02065414        2.47688152        2.85200962
 C            2.15966063        2.20438967        2.00005421
 C           -1.13867602        1.37958720        2.94836778
 C           -0.25130962        2.26536904        2.32334543
 C           -2.02189844       -0.68160205        2.11568558
 C           -2.05245341        0.71638659        2.13586238
 C           -2.45855820       -1.32520397        0.97305362
 C           -0.30456820       -2.37438617        0.88320073
 C           -1.51722582       -2.07305570        0.25994164
 C            2.09502131       -2.19998844        0.69385570
 C            0.85713732       -2.48620086        0.10804005
 C            3.09321211       -0.05249484        0.64134422
 C            2.91876918       -1.29751874        0.04467203
 C            1.92984679        2.05166553        0.64069764
 C            2.64660229        1.08224780       -0.05095250
 C           -0.41973746        2.49118507        0.95690980
 C            0.70506619        2.45680328        0.12091663
 C           -2.53755017        1.37989115        1.01203861
 C           -1.68492290        2.30068323        0.40023006
 C           -3.50610438       -0.72482143        0.29617335
 C           -3.51115447        0.72409770        0.26088521
 C           -3.85872978       -1.21233292       -1.01461437
 C           -1.62250301       -2.18014549       -1.13118659
 C           -2.86921059       -1.98870125       -1.72744739
 C            0.77757977       -2.43303150       -1.29054012
 C           -0.45813338       -2.19314802       -1.91359962
 C            2.97360273       -1.37557782       -1.32978368
 C            1.96418114       -2.18340312       -1.98190604
 C            2.48756585        0.99779638       -1.43659634
 C            3.00814951       -0.13282590       -2.06287249
 C            0.53006122        2.42114459       -1.26023349
 C            1.44592244        1.71562664       -2.04916854
 C           -1.87785289        2.66345828       -0.92952089
 C           -0.71081524        2.77891447       -1.78248163
 C           -3.77951970        1.12867613       -1.10579031
 C           -4.19261021       -0.05913334       -1.83415672
 C           -2.94488146        2.05835013       -1.70911715
 C           -2.94079880       -1.57335723       -3.10906680
 C           -3.65561206       -0.30444091       -3.15654340
 C           -0.52020369       -1.88264816       -3.28938313
 C           -1.70644064       -1.40312502       -3.83314542
 C            1.92368681       -1.74015531       -3.35622818
 C            2.62355238       -0.46157844       -3.41887727
 C            0.64079225       -1.56355793       -3.98529925
 C            1.20733593        1.57975957       -3.41980386
 C            1.78666485        0.46613448       -4.14235077
 C            0.68720084       -0.29919572       -4.69966751
 C           -1.08883334        2.36548062       -3.12368803
 C           -2.44487868        1.83884286       -3.06181887
 C           -2.76625750        0.67485452       -3.75547706
 C           -1.71475005       -0.07086628       -4.42036004
 C           -0.14211786        1.75205737       -3.93216891
 C           -0.49445008        0.54373566       -4.66999360
