   70
C70 / DATE: 7/ 1/2024 / Origin: Program Fullerene / C70 from database
 C            1.21338688        0.05892765        4.71864507
 C            2.43782972       -0.03563722        3.95074830
 C            2.49118766       -1.37398196        3.39718335
 C            0.38594578       -1.08956612        4.37194920
 C            1.16306309       -1.94378150        3.50139777
 C           -0.88341178       -0.59042571        3.88826496
 C            0.39794977        1.24284442        4.56257324
 C           -0.95660691        0.80347052        4.26961801
 C            0.75017865        2.21095861        3.53855227
 C            2.66116536        0.89369968        2.85374392
 C            1.73936746        1.90698815        2.59724144
 C            3.07604822       -1.27889810        2.07208916
 C            3.19486871        0.12986080        1.73893370
 C            2.60294390       -2.12852723        1.08366075
 C            0.59086257       -2.43317978        2.33487815
 C            1.45695072       -2.88491932        1.34974553
 C           -1.31079174       -0.95572121        2.61498718
 C           -0.68948441       -2.01431641        1.94618183
 C           -2.15768906       -0.10428601        1.90638018
 C           -1.51085366        1.74351398        3.31715841
 C           -0.50888551        2.76857867        3.08206285
 C           -2.21641764        1.26174571        2.22253432
 C           -0.53195156        3.43346712        1.86637137
 C            1.62330842        2.40848726        1.29847174
 C            0.65250282        3.37432550        1.03109307
 C            2.89291640        0.53083845        0.43982577
 C            2.27490200        1.76517967        0.23877446
 C            2.87302248       -1.78717992       -0.23617839
 C            2.87524826       -0.42746886       -0.58422115
 C            2.65382429       -2.76237773       -1.19960393
 C            0.91045904       -3.64255086        0.32717999
 C            1.66450374       -3.77891847       -0.90425737
 C           -1.17859778       -2.41363352        0.69394017
 C           -0.47692335       -3.38823400       -0.02221516
 C           -2.71872751       -0.54787597        0.71145867
 C           -2.11554855       -1.61188801        0.02673277
 C           -3.57780806        0.31716552        0.04270017
 C           -2.54087310        2.17134258        1.21941258
 C           -1.67321411        3.23697264        0.98451426
 C           -3.35185045        1.74152525        0.18021906
 C            0.22589991        3.61525445       -0.33652888
 C           -1.22197647        3.49138595       -0.37620346
 C            2.09139513        2.21798793       -1.06234598
 C            0.97577607        3.09489963       -1.37243281
 C            2.63665138       -0.02299074       -1.90741272
 C            2.23589621        1.28290751       -2.16159210
 C            2.48474104       -2.37595698       -2.58062253
 C            2.39103902       -0.96744468       -2.89642465
 C            0.71724728       -3.80682217       -2.00116420
 C           -0.57772361       -3.41955890       -1.47148644
 C            1.28232295       -3.02715936       -3.07966237
 C           -2.27801659       -1.74847524       -1.36161639
 C           -1.31233450       -2.42557353       -2.10518467
 C           -3.91486640        0.06864479       -1.34232931
 C           -3.22323052       -0.98953899       -2.04009335
 C           -3.09059382        2.24625169       -1.15496371
 C           -1.84359052        2.81144239       -1.42241298
 C           -3.68591161        1.30496382       -2.07888873
 C            0.29596511        2.55453272       -2.53431105
 C            1.14644320        1.51868865       -3.10086909
 C           -1.08402816        2.37196292       -2.52010156
 C            1.24152741       -0.78649705       -3.76954649
 C            0.45771948       -2.00602974       -3.68727399
 C           -0.87976923       -1.89601531       -3.33289476
 C            0.56993017        0.43766973       -3.76991636
 C           -2.86556350       -0.47475419       -3.34357246
 C           -2.96641294        0.97310019       -3.28490144
 C           -1.63207782        1.50986675       -3.46772950
 C           -1.55189799       -0.80124053       -3.85737102
 C           -0.80736143        0.44197402       -4.01289463
