   70
C70 / DATE: 7/ 1/2024 / Origin: Program Fullerene / C70 from database
 C            1.19827744       -0.14409254        4.52686071
 C            2.50486583       -0.33658581        3.92850572
 C            2.51510714       -1.65469118        3.31554518
 C            0.38647237       -1.30630020        4.19789255
 C            1.15736963       -2.15293546        3.31538907
 C           -0.90004971       -0.83292137        3.74177692
 C            0.43315634        1.04146940        4.18390885
 C           -0.91882920        0.61663806        3.86872884
 C            1.01819306        2.03961595        3.41969126
 C            2.97811510        0.61657640        2.93897730
 C            2.27996775        1.79689790        2.72794098
 C            3.19042896       -1.54682906        2.03823760
 C            3.45161951       -0.13619718        1.79138775
 C            2.73604834       -2.31459940        0.97063562
 C            0.61267739       -2.54187645        2.09750044
 C            1.48125115       -2.92960934        1.07489723
 C           -1.48305664       -1.40623800        2.61721218
 C           -0.72206353       -2.24102847        1.78609839
 C           -2.59201410       -0.75631528        2.08962458
 C           -1.69172625        1.34837615        2.96722276
 C           -2.73068400        0.67085285        2.32854121
 C            0.18014685        2.81917864        2.53160794
 C           -1.17811096        2.52739093        2.40451147
 C            2.14621957        2.30167369        1.37142641
 C            0.94761809        3.10780345        1.32928740
 C            3.25990451        0.35391835        0.49889253
 C            2.44328709        1.47385000        0.29692567
 C            3.20193408       -1.95247492       -0.28811458
 C            3.44706293       -0.54310895       -0.54395494
 C            2.60476777       -2.53242475       -1.47573332
 C            0.94424112       -3.58807733       -0.02627085
 C            1.58205036       -3.45282912       -1.32583866
 C           -1.22502240       -2.61858877        0.53715963
 C           -0.48989029       -3.51417177       -0.23268514
 C           -3.00285430       -1.02169952        0.72379216
 C           -2.22608233       -1.85237083       -0.06612194
 C           -3.38795117        1.25361854        1.17644212
 C           -3.50982966        0.21556622        0.15931600
 C           -1.85646720        3.14729908        1.35602834
 C           -3.05516463        2.54230897        0.80083557
 C            0.25734853        3.25413582        0.13543796
 C           -1.07135288        3.65019035        0.24048380
 C            1.76255519        1.64875120       -0.91709045
 C            0.67917888        2.54647690       -1.00235384
 C            2.92545631       -0.23307282       -1.85580545
 C            2.48907716       -1.47652280       -2.47269918
 C            2.15832987        0.90849056       -2.03657668
 C            1.40872720       -1.44246305       -3.35357982
 C            0.54875011       -3.52334147       -2.33878326
 C           -0.73648975       -3.59286724       -1.65923903
 C            0.46033081       -2.47011798       -3.33627577
 C           -2.24208527       -1.67617769       -1.45198936
 C           -1.60753113       -2.60710993       -2.26757680
 C           -0.95397349       -2.15303414       -3.48015015
 C           -3.24647307        0.51252444       -1.17640562
 C           -2.67226939       -0.46171755       -1.99903793
 C           -3.11909492        2.89878698       -0.60408289
 C           -1.91230505        3.64416953       -0.93089696
 C           -3.24982543        1.84312954       -1.59304378
 C           -0.05517475        2.65603364       -2.19488801
 C           -1.37972478        3.09001335       -2.15425019
 C           -2.41487268        2.23536860       -2.71199374
 C            1.44333349        1.00856470       -3.22047994
 C            1.06780183       -0.21526422       -3.91806455
 C            0.34297390        1.94186302       -3.31814082
 C           -1.31914623       -0.92682555       -4.01034728
 C           -2.30461065       -0.12292193       -3.30385181
 C           -2.03783321        1.26856221       -3.62734816
 C           -0.26834551       -0.02981749       -4.44987651
 C           -0.68374113        1.32712417       -4.14517470
