   70
C70 / DATE: 7/ 1/2024 / Origin: Program Fullerene / C70 from database
 C            1.65198959        0.00999428        4.48780578
 C            0.80554478       -1.16388421        4.51621828
 C            1.22473553       -2.05447895        3.44555518
 C            2.56165158       -0.13169872        3.36544013
 C            2.22459328       -1.34995915        2.66082674
 C            2.51895263        1.10715263        2.62094951
 C            0.79452286        1.14841508        4.20737698
 C            1.40502422        1.88351623        3.12938267
 C           -0.57214388       -0.70662258        4.51285188
 C           -0.54990426        0.65468638        4.00343187
 C           -1.51566506       -1.57367022        3.99926006
 C            0.23355136       -2.77448574        2.78783188
 C           -1.03225113       -2.79158597        3.37888651
 C            0.34586064       -2.97744405        1.40590487
 C            2.07889549       -1.28888461        1.28078864
 C            1.20586912       -2.17197348        0.64818645
 C            2.65848888        1.06359358        1.23793284
 C            2.54856944       -0.16864346        0.58330910
 C            2.27839973        2.20438948        0.53497643
 C            0.59025943        2.47111356        2.17842493
 C            1.23964089        2.97897572        1.06879067
 C           -1.19809816        0.95212097        2.79945701
 C           -0.71094323        1.97978011        1.98582587
 C           -2.48981707       -1.04936075        3.06385504
 C           -2.14048554        0.05468680        2.28713843
 C           -2.15877826       -3.32582822        2.64620686
 C           -3.07634185       -2.21024775        2.43138836
 C           -0.60586213       -3.75789933        0.75319873
 C           -1.90874733       -3.94287894        1.36384415
 C           -0.83444926       -3.56055608       -0.66595575
 C            1.12721930       -2.16262921       -0.74579768
 C            0.05814346       -2.78758184       -1.39969791
 C            2.49511135       -0.17607821       -0.81138936
 C            1.94031434       -1.28398659       -1.46433749
 C            2.52526206        2.24202116       -0.83478899
 C            2.68831700        1.02536825       -1.50749476
 C            2.16727975        3.39389989       -1.53624498
 C            0.47327887        3.75195533        0.21937652
 C            1.04313062        4.15591399       -1.04542227
 C           -1.34519766        2.23022691        0.76278541
 C           -0.88277371        3.29667035       -0.01440255
 C           -2.47337994        0.09721748        0.92168050
 C           -2.05709328        1.19243305        0.14869537
 C           -3.36603333       -2.15585556        1.02004208
 C           -2.88653210       -3.39886803        0.44419938
 C           -2.26180469       -3.33603847       -0.85971633
 C           -3.14534946       -0.97752987        0.31188288
 C           -2.63848809       -2.29537402       -1.69289253
 C           -3.14656193       -1.07628810       -1.07565585
 C           -0.37886199       -2.27170945       -2.61980970
 C           -1.71079894       -1.88371600       -2.72575032
 C            1.82758173       -1.28131827       -2.85044783
 C            0.54125353       -1.61886718       -3.42512447
 C            2.82668319        1.00036398       -2.89367970
 C            2.35421970       -0.16276830       -3.61219622
 C            2.02554401        3.35488146       -2.97610078
 C            2.41698445        2.15158495       -3.67508632
 C           -0.00524160        4.05012115       -2.04257278
 C           -1.06126491        3.25198260       -1.45300842
 C            0.61571681        3.58898437       -3.26415565
 C           -2.15896050        1.15184435       -1.25082740
 C           -2.69371645        0.04112178       -1.87449793
 C           -2.00315140       -0.49448047       -3.03107134
 C           -1.42551901        2.04275227       -2.02689187
 C            0.09817321       -0.43127754       -4.12930025
 C            1.29665031        0.28748561       -4.50865349
 C            1.27259802        1.73287585       -4.46571413
 C            0.11280420        2.38280888       -3.88658738
 C           -0.99922636        0.26414558       -3.62106163
 C           -0.83937288        1.59938527       -3.22737391
