   70
C70 / DATE: 7/ 1/2024 / Origin: Program Fullerene / C70 from database
 C            1.40969944        0.05681858        4.88685565
 C            0.62051117       -1.14941545        4.70808650
 C            1.44598193       -2.11828038        4.02507615
 C            2.61669033       -0.08674231        4.09140463
 C            2.70242482       -1.46888448        3.68110358
 C            2.60071446        0.93744733        3.06088902
 C            0.64861601        1.16355462        4.33678500
 C            1.44250320        1.78219506        3.29537747
 C           -0.63697058       -0.76834459        4.09743076
 C           -0.66897267        0.67537229        3.97609127
 C           -1.15007253       -1.50849811        3.04112917
 C            0.92977377       -2.73841273        2.81796094
 C           -0.35884698       -2.46570541        2.38635956
 C            2.96165263       -1.74662631        2.28533528
 C            1.98688772       -2.72525784        1.83138536
 C            2.92232172        0.60601105        1.74272894
 C            3.29296152       -0.70920886        1.41929832
 C            2.49943418        1.46920560        0.72519220
 C            0.77355311        2.28788002        2.19118629
 C            1.45325857        2.36494581        0.97951839
 C           -1.27976784        1.21786493        2.84745248
 C           -0.62048368        2.24448084        2.17063126
 C           -2.20635106       -0.94863537        2.33352316
 C           -2.21453911        0.44333912        2.14801121
 C           -2.84428714       -1.77128829        1.41956144
 C           -0.68713421       -2.81644105        1.07864718
 C           -2.02304028       -2.73882855        0.71908318
 C            1.65633369       -2.73089455        0.47518418
 C            0.30519631       -2.76344576        0.08868769
 C            3.39490215       -1.05887777        0.08029601
 C            2.58986232       -2.17589800       -0.38998316
 C            2.92144559        1.24337567       -0.58600722
 C            3.34605083       -0.02841653       -0.93658283
 C            2.50162619        2.09730743       -1.59941852
 C            0.86206381        3.06450787       -0.07017504
 C            1.50019318        3.10272531       -1.30276165
 C           -1.27665879        2.87179615        1.12363842
 C           -0.49234837        3.38732393        0.01352183
 C           -2.88415841        1.01437421        1.05344791
 C           -2.46832758        2.25203694        0.57133553
 C           -3.76655240       -1.19269341        0.47380276
 C           -3.68603824        0.22844736        0.22938377
 C           -2.38885436       -2.70307054       -0.67831222
 C           -3.58007969       -1.87689803       -0.79207459
 C           -0.05006778       -2.52471888       -1.25541645
 C           -1.40000518       -2.57949198       -1.64592300
 C            2.22393369       -1.91010009       -1.75965269
 C            2.81990270       -0.63984670       -2.14550943
 C            0.94411252       -2.20357034       -2.19731086
 C            2.19770241        1.54289150       -2.91245336
 C            2.16185823        0.15782686       -3.07867619
 C            0.71325705        3.31656114       -2.50541624
 C            1.16290044        2.36794573       -3.50930550
 C           -1.32964853        3.33121107       -1.17549788
 C           -2.47000754        2.48878997       -0.86531397
 C           -0.73298321        3.23181185       -2.42052530
 C           -3.62993100        0.42775322       -1.21329318
 C           -3.63150009       -0.88241296       -1.84666570
 C           -2.83192635        1.45251342       -1.72362178
 C           -1.78925520       -2.09101199       -2.89236558
 C           -2.83696613       -1.08270762       -2.96088328
 C            0.59165735       -1.69648028       -3.44177376
 C            1.16323946       -0.42613999       -3.86429944
 C           -0.78551691       -1.73137883       -3.86483981
 C           -0.00506608        1.72342985       -4.07174182
 C           -1.17307235        2.19110368       -3.33413058
 C           -2.15509896        1.27830848       -2.93879955
 C           -2.26446104        0.06990904       -3.62599979
 C            0.08244891        0.38376273       -4.41518947
 C           -1.12668113       -0.41620470       -4.38548268
