   70
C70 / DATE: 7/ 1/2024 / Origin: Program Fullerene / C70 from database
 C            1.11042361       -0.08947421        4.92748758
 C            2.34754795       -0.32312451        4.20676107
 C            2.22991480       -1.61741054        3.55525858
 C            0.26359381       -1.25551992        4.72422562
 C            0.84615134       -2.02840144        3.64721811
 C           -1.09381701       -0.79125973        4.58031333
 C            0.31600720        1.08512353        4.61368666
 C           -1.07168571        0.66642449        4.58093691
 C            0.76886192        1.99484237        3.66458653
 C            2.77689915        0.63279849        3.20019921
 C            2.05591172        1.80085785        3.00560135
 C            2.80988598       -1.49684734        2.23713374
 C            3.22226516       -0.12199865        2.04242581
 C            2.18285797       -2.11611952        1.16982874
 C            0.13593333       -2.22790352        2.46101664
 C            0.84411629       -2.51335380        1.29392595
 C           -1.84708663       -1.19799660        3.41121572
 C           -1.22249076       -1.89499760        2.37095486
 C           -1.92321089        1.10461354        3.48604777
 C           -2.68051607       -0.06321263        3.07782773
 C           -0.15805607        2.53106040        2.67707605
 C           -1.41150508        1.95257296        2.50131865
 C            1.94958614        2.34719787        1.66545783
 C            0.61827345        2.90110708        1.51261678
 C            3.08646731        0.40909535        0.75941918
 C            2.51063583        1.67608999        0.57980515
 C            2.65182204       -1.79681940       -0.09719283
 C            3.09365937       -0.48610200       -0.31622821
 C            2.17968740       -2.56466214       -1.15231076
 C            0.14090767       -2.84952881        0.13957291
 C            0.88738804       -3.19734155       -0.98142074
 C           -1.85684075       -1.92020901        1.12067359
 C           -1.17110558       -2.38274537       -0.00929601
 C           -3.27013597       -0.04829445        1.83262049
 C           -3.01741525       -1.17029744        0.94858444
 C           -2.00024563        1.95167571        1.23136677
 C           -3.10575017        1.13836058        1.01653621
 C            0.03783339        2.83632136        0.25787605
 C           -1.29773392        2.44445117        0.12357029
 C            2.09783750        2.05471248       -0.70167073
 C            0.88269769        2.73648351       -0.84142955
 C            3.12152839        0.03651784       -1.60427341
 C            2.64726422        1.39144343       -1.79479363
 C            2.25950300       -2.06802495       -2.51220767
 C            2.66423566       -0.76183661       -2.72969423
 C            0.25005916       -3.26377496       -2.27515621
 C            1.11210158       -2.58371494       -3.23260157
 C           -1.72694717       -2.20168400       -1.29221975
 C           -1.08106090       -2.71858910       -2.41345416
 C           -3.37460259       -0.71626070       -0.37613413
 C           -3.43177555        0.73898273       -0.33308418
 C           -2.79151459       -1.31368581       -1.48278798
 C           -1.84278806        2.33397020       -1.16598449
 C           -2.90061534        1.44076035       -1.40448695
 C            0.33682567        2.95405524       -2.09877125
 C           -1.10402239        2.84820992       -2.23729323
 C            1.99777127        1.46168687       -3.09155868
 C            1.88686512        0.10347819       -3.60708563
 C            0.94616644        2.34486459       -3.26875259
 C            0.28359761       -1.66744039       -3.99357195
 C           -1.09984438       -1.96393569       -3.65416599
 C            0.68073765       -0.33980011       -4.15831513
 C           -2.90609343       -0.62892897       -2.69256778
 C           -3.01667821        0.81905045       -2.64512645
 C           -2.05560779       -0.97520296       -3.81831734
 C           -1.37697036        2.41535673       -3.59545238
 C           -0.11866150        1.98512539       -4.18454371
 C           -0.26336198        0.59455486       -4.57966240
 C           -2.34227714        1.36247249       -3.80213668
 C           -1.67340495        0.26218135       -4.47939792
