   70
C70 / DATE: 7/ 1/2024 / Origin: Program Fullerene / C70 from database
 C            1.20364568        0.06185530        4.39383489
 C            2.42998672       -0.24237267        3.69688660
 C            2.40744327       -1.66203078        3.39749077
 C            0.37510606       -1.13862399        4.37280770
 C            1.02843425       -2.09595613        3.51376793
 C           -0.96518992       -0.71869841        4.04030103
 C            0.37442220        1.14217403        3.90120225
 C           -0.98314794        0.72693913        4.17876469
 C            0.64845954        1.72875948        2.66352248
 C            2.70611131        0.44429274        2.45328975
 C            1.77361743        1.33403913        1.92342506
 C            3.06787448       -1.84732067        2.12268952
 C            3.32208485       -0.52494730        1.56604889
 C            2.56244434       -2.81933506        1.27597918
 C            0.37849457       -2.55651252        2.36860346
 C            1.15889287       -3.19817379        1.41234161
 C           -1.61168148       -1.28773699        2.94553655
 C           -0.86494534       -2.01218201        2.00042165
 C           -2.82338723       -0.71754751        2.57533272
 C           -2.01253079        1.41895404        3.56948054
 C           -3.10510365        0.63960275        3.01712518
 C           -0.37775003        2.43427472        2.02531679
 C           -1.66785063        2.41668023        2.56991561
 C           -0.18723223        2.91917304        0.72899344
 C            1.83097592        1.62177702        0.56226097
 C            0.97771264        2.58661319        0.03639622
 C            3.19723200       -0.34392264        0.19164897
 C            2.61946350        0.83421577       -0.28851719
 C            2.82813073       -2.69242830       -0.14046849
 C            3.24937228       -1.46215436       -0.64149766
 C            0.63239836       -3.41238438        0.08056536
 C            1.76617782       -3.40469452       -0.82658397
 C           -1.32394851       -2.12786182        0.67130563
 C           -0.54022561       -2.77363826       -0.29697915
 C           -3.28768523       -0.83813016        1.21148035
 C           -2.56168200       -1.58876010        0.30018503
 C           -3.64848664        1.37971170        1.89328389
 C           -2.82015665        2.55105064        1.69313595
 C           -3.81354913        0.45448980        0.79030236
 C           -1.28213096        3.41786996        0.02456122
 C           -2.61409702        2.99228548        0.39879361
 C           -1.25176722        3.43104714       -1.42315432
 C            1.14182850        2.99730954       -1.28329998
 C           -0.02296620        3.40024135       -2.05693739
 C            2.64089604        1.09169368       -1.66094400
 C            2.01471627        2.23229267       -2.15535629
 C            3.21871662       -1.27288325       -2.01745813
 C            2.94688211        0.05425765       -2.54305310
 C            1.55035770       -3.12325476       -2.16505969
 C            2.47972774       -2.22620565       -2.82859718
 C           -0.80790268       -2.59854253       -1.65956255
 C            0.21197656       -2.75494329       -2.59591572
 C           -2.83969600       -1.38521809       -1.04502617
 C           -1.93556864       -1.89500187       -2.05036269
 C           -3.55650852        0.89099831       -0.50764364
 C           -3.12700116        2.20381296       -0.71673341
 C           -2.30286331        2.52596127       -1.87550372
 C           -3.29682746       -0.07325458       -1.47521937
 C           -1.81423086       -0.89385879       -3.09994221
 C           -2.00846217        1.54192195       -2.81928659
 C           -2.57011795        0.27777845       -2.68566436
 C            0.05963592        2.74568945       -3.34571604
 C            1.38530451        2.17139145       -3.46266520
 C           -0.90740267        1.70794528       -3.65608776
 C            2.17124060       -0.10342014       -3.76823380
 C            1.74519943       -1.48411476       -3.83619914
 C            0.33495781       -1.77900567       -3.67037428
 C           -0.59220654       -0.74029692       -3.74950205
 C            1.25283405        0.87813454       -4.10132680
 C           -0.16845229        0.54017885       -4.11812581
