   70
C70 / DATE: 7/ 1/2024 / Origin: Program Fullerene / C70 from database
 C            1.16910374        0.02117064        4.38432065
 C            2.48496209       -0.20634961        3.83098891
 C            2.57010558       -1.61142340        3.49369696
 C            0.36241475       -1.16261537        4.12350451
 C            1.22325882       -2.15837611        3.52980567
 C           -0.80815910       -0.74283889        3.38732465
 C            0.42554166        1.16109366        3.89964570
 C           -0.89275383        0.69973007        3.50453703
 C            1.05279521        2.08123135        3.06993374
 C            2.87777278        0.55088287        2.65499135
 C            2.11250774        1.64157391        2.25957796
 C            3.30857920       -1.72010121        2.24825690
 C            3.30082186       -0.39869364        1.63672306
 C            3.02284153       -2.80646379        1.44331970
 C            0.79169296       -2.86820464        2.41458421
 C            1.78952108       -3.52902043        1.71068898
 C           -1.07611215       -1.32302550        2.15702727
 C           -0.36543421       -2.45095751        1.72423873
 C           -1.86308457       -0.62466568        1.25264884
 C           -1.55329077        1.42482202        2.51605237
 C           -2.11434628        0.74371454        1.43291691
 C            0.23563429        3.09010309        2.58026670
 C           -1.15878205        2.74771832        2.33130719
 C            0.70004545        3.86261677        1.44860245
 C            2.12234902        1.98282688        0.90708706
 C            1.61709205        3.21819142        0.53491431
 C            2.83884139       -0.24143402        0.32358780
 C            2.26073481        0.97411796       -0.04977229
 C            3.04215878       -2.61853058        0.01038546
 C            2.70701843       -1.36215941       -0.50410429
 C            1.44574911       -4.23216235        0.50197420
 C            2.39958659       -3.80453824       -0.51279295
 C           -0.68585873       -3.02014665        0.47599618
 C            0.12667474       -4.02935911       -0.04946708
 C           -2.33453372       -1.28072745        0.12428119
 C           -1.64030895       -2.40108400       -0.35664214
 C           -3.29837565       -0.65443172       -0.65838480
 C           -2.72409764        1.47298352        0.40836886
 C           -3.45118500        0.78820895       -0.56030810
 C           -1.58761751        3.46167643        1.14266912
 C           -0.46650927        4.26624195        0.69119233
 C           -2.35271854        2.80331321        0.18515997
 C            1.10065050        3.40105782       -0.80822550
 C           -0.11300945        4.20723651       -0.71088057
 C            1.62666365        1.09497199       -1.29041853
 C            1.14715138        2.34022766       -1.71298947
 C            2.00052594       -1.25829810       -1.71308755
 C            1.41628821       -0.04256748       -2.07674478
 C            1.67757561       -3.69987422       -1.75306338
 C            0.30663218       -4.10168186       -1.47929687
 C            1.60383210       -2.40680164       -2.39953452
 C           -1.66662716       -2.70508563       -1.73319490
 C           -0.53806578       -3.27475639       -2.29864330
 C            0.32317109       -2.39612991       -3.07141221
 C           -3.39648051       -1.01289451       -2.05198076
 C           -2.37880196       -1.87988829       -2.59134852
 C           -3.53585155        1.32448845       -1.91097236
 C           -3.39542638        0.21162168       -2.83382919
 C           -2.33891862        3.30613606       -1.11778208
 C           -1.13335311        3.96070343       -1.61366865
 C           -2.89450933        2.51983799       -2.20370309
 C            0.36372035        2.42016248       -2.86123769
 C           -0.78211361        3.31217857       -2.85826078
 C           -1.93828256        2.55604938       -3.30009673
 C            0.48142205       -0.01452067       -3.12183841
 C           -0.21299628       -1.17751543       -3.45850701
 C           -1.60200339       -1.11256798       -3.55169690
 C           -2.24775621        0.17336007       -3.72847991
 C           -0.03342488        1.20443588       -3.54432828
 C           -1.45464803        1.30520587       -3.85388334
