   70
C70 / DATE: 7/ 1/2024 / Origin: Program Fullerene / C70 from database
 C            1.29109019       -0.23664697        4.47932753
 C            2.55165514       -0.52229062        3.83627308
 C            2.48087374       -1.85970472        3.27043537
 C            0.43550401       -1.40400297        4.32574453
 C            1.16992382       -2.40655891        3.57313689
 C           -0.84705695       -0.94297008        3.81801766
 C            0.53351001        0.92141339        4.03968946
 C           -0.85321961        0.50220436        3.94064995
 C            1.05312183        1.77714951        3.06384488
 C            3.00466873        0.36888330        2.79221234
 C            2.35923115        1.58157820        2.57320541
 C            2.90966725       -1.78431657        1.87971787
 C            3.36670398       -0.43187121        1.63424855
 C            2.16344498       -2.43316524        0.90416419
 C            0.50495535       -3.10967139        2.57982423
 C            1.16694611       -3.31382425        1.30301968
 C           -1.38056254       -1.53963028        2.67519808
 C           -0.87625165       -2.76844593        2.27414710
 C           -2.13638347       -0.77403802        1.77858763
 C           -1.70510210        1.22788204        3.13040354
 C           -2.49422656        0.51880448        2.13795813
 C            0.16952034        2.64858097        2.40846274
 C           -1.20254433        2.43035523        2.49166923
 C            0.63654628        3.53130723        1.44323363
 C            2.77746465        2.28658172        1.45249691
 C            2.00506232        3.41755751        0.99573672
 C            3.20556680        0.12986699        0.37158937
 C            3.19354412        1.52343946        0.28461921
 C            2.11715660       -1.91079368       -0.38846257
 C            2.60373986       -0.62003520       -0.64608283
 C            1.38241469       -2.58197078       -1.37402562
 C            0.12958018       -3.66360137        0.35848063
 C           -1.13773433       -3.23351583        0.93090745
 C            0.32933872       -3.42918516       -0.99353565
 C           -2.34454162       -1.21150163        0.45982689
 C           -2.01459697       -2.52931670        0.11465624
 C           -2.77136406       -0.30096916       -0.53061127
 C           -2.83331611        1.47180474        1.10644442
 C           -2.03324004        2.67163818        1.32419657
 C           -3.03791114        1.03702527       -0.19294215
 C           -0.18733955        3.81172239        0.27551549
 C           -1.50418988        3.34657463        0.22316345
 C            2.00327673        3.39601353       -0.45743536
 C            2.62262868        2.16421951       -0.88724308
 C            0.65789935        3.66968259       -0.90273501
 C            2.25915716        0.01693908       -1.83901986
 C            1.97193488        1.37492367       -1.82269845
 C            1.46961092       -2.12379810       -2.68928538
 C            1.83155928       -0.73847907       -2.91596227
 C            0.43963218       -2.46927059       -3.65339688
 C           -0.81859273       -3.47827464       -1.77621368
 C           -2.03600741       -2.91119672       -1.22003996
 C           -0.75247509       -3.12990293       -3.17657756
 C           -2.90353950       -0.71805960       -1.86664428
 C           -2.59559193       -2.02586033       -2.21324087
 C           -1.89122481       -2.27468113       -3.46533390
 C           -2.92368147        0.22455631       -2.89219516
 C           -3.00821244        2.01489703       -1.17823522
 C           -2.07907380        3.12125004       -1.02746237
 C           -2.99950152        1.62920312       -2.56896403
 C            0.14972945        2.98300331       -1.99690496
 C            0.82466103        1.84578527       -2.47845168
 C           -1.21652441        3.09552645       -2.19622211
 C           -1.85877728        2.28020236       -3.19913439
 C            0.85278751       -0.15998326       -3.81953892
 C            0.03249492       -1.24801924       -4.32994499
 C           -1.41391506       -1.14074913       -4.23772015
 C           -1.96515510        0.10359820       -3.97753470
 C            0.24754959        1.05138499       -3.48258252
 C           -1.08229907        1.25074639       -3.85442722
