   70
C70 / DATE: 7/ 1/2024 / Origin: Program Fullerene / C70 from database
 C            1.20922879       -0.01923390        4.91797880
 C            2.51484341       -0.39601745        4.41828319
 C            2.37722408       -1.69694498        3.77414772
 C            0.36149691       -1.19338092        4.81969545
 C            0.98327640       -2.08637361        3.85845403
 C           -0.98018878       -0.72291512        4.55270323
 C            0.49539649        1.07079263        4.26994403
 C           -0.90399401        0.70938944        4.29682981
 C            1.02353094        1.65493052        3.11702442
 C            3.16493789        0.48934002        3.47521758
 C            2.39174489        1.56056330        2.87023533
 C            2.99460504       -1.60836317        2.46656027
 C            3.66941113       -0.33058024        2.38795561
 C            2.28631555       -2.02747534        1.34980011
 C            0.29664446       -2.41212220        2.68769875
 C            1.01034961       -2.58426181        1.49213338
 C           -1.70596374       -1.30988392        3.44583368
 C           -1.09624883       -2.27725644        2.65167890
 C           -1.71005454        0.98468526        3.12654563
 C           -2.41610031       -0.23248188        2.78215933
 C            0.17269973        2.08831183        2.08820774
 C           -1.18088603        1.73775742        2.09145669
 C            0.72703036        2.59380928        0.90456461
 C            2.86560349        1.68332561        1.50923637
 C            3.52560996        0.43758539        1.16230066
 C            2.03264244        2.23753169        0.55618868
 C            2.67146004       -1.53664004        0.10578553
 C            3.10689678       -0.21272751        0.00069607
 C            2.18527651       -2.17648531       -1.01955580
 C            0.34958907       -3.05216535        0.35180983
 C            1.00099036       -3.00642669       -0.87958896
 C           -1.77498276       -2.64736388        1.49962233
 C           -1.03244914       -3.18115447        0.37460959
 C           -2.79874207       -0.42621218        1.45789753
 C           -2.76524879       -1.72431595        0.96566895
 C           -1.85966696        1.72703735        0.88315923
 C           -2.65910497        0.62593241        0.55019082
 C           -0.12199920        3.03389890       -0.12126626
 C           -1.45681220        2.60633915       -0.11148954
 C            0.48026086        3.39813544       -1.32823485
 C            2.28306698        1.90308979       -0.76593431
 C            2.62650183        0.57924382       -1.05053717
 C            1.66938685        2.67721262       -1.73169691
 C            2.05416745       -1.42467809       -2.25097040
 C            2.13030453       -0.03619618       -2.20653718
 C            0.22844302       -2.88226522       -2.10958052
 C            1.00955353       -2.06077719       -3.02838933
 C           -1.80386203       -2.89397935       -0.82526224
 C           -2.83999656       -1.93820319       -0.46497552
 C           -1.16044057       -2.74708337       -2.05023393
 C           -3.04167661        0.43589840       -0.78146192
 C           -3.07314180       -0.86024206       -1.31108774
 C           -2.24953254        2.69720869       -1.25318094
 C           -3.03643344        1.53832032       -1.63409688
 C           -0.31978248        3.61356002       -2.51709831
 C           -1.72759358        3.30353135       -2.46080894
 C            1.40291413        2.10306341       -3.03201161
 C            1.47606726        0.72318459       -3.18292162
 C            0.27271628        2.82696726       -3.58991237
 C            0.36266374       -1.32327823       -4.00528925
 C            0.65807084        0.09601367       -4.12692135
 C           -1.82508600       -2.04272344       -3.05283206
 C           -2.82795057       -1.06108817       -2.66646296
 C           -1.06788955       -1.48979705       -4.15949191
 C           -2.88887899        1.35209185       -3.06892281
 C           -2.03655603        2.41931201       -3.57200327
 C           -0.78760592        2.08072570       -4.23927289
 C           -0.55191861        0.75967376       -4.59760305
 C           -2.73015587        0.06956204       -3.57106351
 C           -1.63997814       -0.19693110       -4.49557757
