   70
C70 / DATE: 7/ 1/2024 / Origin: Program Fullerene / C70 from database
 C            1.17946031       -0.03029447        4.43206560
 C            2.50446900       -0.32756717        3.93913259
 C            2.51613782       -1.72934626        3.55132222
 C            0.38188290       -1.23991540        4.29523250
 C            1.13400821       -2.15617477        3.46804880
 C           -0.93342045       -0.83864427        3.84311334
 C            0.43064204        1.04367658        3.80989729
 C           -0.94850964        0.61458242        3.75819659
 C            0.94682984        1.71383695        2.70671434
 C            3.00827618        0.42747574        2.81005365
 C            2.17832964        1.33106771        2.15162750
 C            3.34418520       -1.84178955        2.37357685
 C            3.77535988       -0.49981152        2.00722575
 C            2.77814426       -2.44111678        1.18323073
 C            0.59439047       -2.52852843        2.23689560
 C            1.43433523       -2.80826303        1.14580166
 C           -1.55446934       -1.55828307        2.82822303
 C           -0.79020714       -2.43667398        2.04556663
 C           -2.71217588       -0.99883988        2.29619270
 C           -1.79520067        1.20594412        2.82651097
 C           -2.86573356        0.44501312        2.36268746
 C            0.06957818        2.48329742        1.94278621
 C           -1.31193470        2.25123975        2.03007632
 C            0.59128404        3.21282622        0.87919732
 C            2.46753719        1.66267305        0.82572214
 C            1.81631211        2.74752597        0.25941354
 C            3.68555413       -0.39559946        0.56101408
 C            3.31128453       -1.70435786        0.05957812
 C            3.07684494        0.72077405       -0.00966228
 C            2.61786838       -1.75670701       -1.13617544
 C            0.87037032       -3.06071539       -0.10688274
 C            1.55332935       -2.65042545       -1.25865374
 C           -1.35195950       -3.01833962        0.91321454
 C           -0.47988358       -3.38754343       -0.18590012
 C           -3.22025731       -1.44252159        1.01034694
 C           -2.56568767       -2.45868309        0.33981786
 C           -3.59600737        0.87000151        1.18349354
 C           -3.64646693       -0.26459123        0.27161366
 C           -2.18130895        2.86065498        1.12300057
 C           -3.35886990        2.13508301        0.67045977
 C           -0.28178720        3.70841390       -0.16832321
 C           -1.65282076        3.60224055       -0.01062531
 C            1.63604754        2.79692231       -1.17940026
 C            0.33154221        3.38446805       -1.45146777
 C            2.68205556        0.63549978       -1.34915280
 C            2.63654522       -0.63007906       -1.95004635
 C            2.07586312        1.73893124       -1.96400450
 C            2.21560294       -0.77378379       -3.26455991
 C            0.94170039       -2.78181133       -2.50454479
 C            1.36965089       -1.90856278       -3.58802927
 C           -1.21069524       -3.15486324       -1.42192157
 C           -2.35577096       -2.32992503       -1.08945453
 C           -0.50578316       -2.87142445       -2.57672478
 C           -3.26564340       -0.09715253       -1.06144406
 C           -2.50945592       -1.08380029       -1.69864620
 C           -3.47391489        2.32605594       -0.76232216
 C           -2.46645765        3.29031452       -1.16804172
 C           -3.35946610        1.16603995       -1.63103784
 C           -0.43887075        2.88801130       -2.50729619
 C           -1.82140517        2.77846637       -2.36244721
 C           -2.46723602        1.52079182       -2.71460663
 C            1.53295889        1.61650618       -3.23741743
 C            1.69231045        0.37518219       -3.96712482
 C            0.17727069        2.08926959       -3.46788515
 C            0.17379491       -1.39381303       -4.23590688
 C           -0.95672210       -1.77131817       -3.41038916
 C           -1.77467274       -0.78344475       -2.85423008
 C           -1.70315330        0.53629361       -3.32706486
 C            0.39267687        0.00811865       -4.51005442
 C           -0.56848593        0.96751260       -4.00960622
