   70
C70 / DATE: 7/ 1/2024 / Origin: Program Fullerene / C70 from database
 C            1.60115595        0.04835033        4.66799090
 C            0.79139214       -1.15507582        4.66214357
 C            1.36275125       -2.08202696        3.70093176
 C            2.62540657       -0.10412237        3.65144268
 C            2.48248646       -1.41233484        3.05148581
 C            2.55550737        1.04592286        2.78228464
 C            0.74819750        1.15389981        4.26662551
 C            1.38278311        1.82085130        3.14410757
 C           -0.59159206       -0.75819226        4.49125426
 C           -0.59383063        0.63858774        4.08174312
 C           -1.43921351       -1.63893762        3.84145785
 C            0.50174331       -2.86053086        2.92926810
 C           -0.86956511       -2.81506301        3.19737841
 C            0.95614942       -3.32405223        1.69327517
 C            2.63361243       -1.53994218        1.67344855
 C            2.08910830       -2.66276832        1.06424838
 C            2.80263578        0.87650484        1.43174392
 C            2.92085553       -0.41239164        0.89180502
 C            2.39543319        1.89920336        0.58927149
 C            0.58093466        2.30345784        2.10968432
 C            1.17384874        2.52221446        0.85858921
 C           -1.28640269        1.01860648        2.93501400
 C           -0.79736628        2.08295396        2.17514830
 C           -2.42960183       -1.10442162        2.92653329
 C           -2.23628863        0.15750735        2.37562073
 C           -1.82224755       -3.24150685        2.18726686
 C           -2.81859250       -2.18774714        2.05086387
 C            0.01683622       -3.69002844        0.64157494
 C           -1.34512213       -3.57589188        0.86061400
 C            1.87529954       -2.66808095       -0.37146397
 C            0.56979029       -3.24487405       -0.62573189
 C            2.97936330       -0.53777731       -0.50141884
 C            2.26883416       -1.57045697       -1.12474670
 C            2.89462368        1.88669565       -0.69937835
 C            3.29842454        0.60178172       -1.23805292
 C            2.19049503        2.60287115       -1.73973508
 C            0.39209744        3.02040423       -0.19134142
 C            0.89495552        3.04783078       -1.49789003
 C           -1.59946958        2.59096929        1.16610044
 C           -0.96664949        3.22858250        0.02778608
 C           -2.77111040        0.44957107        1.11706537
 C           -2.67167417        1.75537122        0.65408091
 C           -2.97918878       -1.90535689        0.63879950
 C           -2.15469053       -2.84438786       -0.09599595
 C           -3.01041342       -0.58279448        0.20021398
 C           -0.24676514       -2.63479143       -1.57192063
 C           -1.59913679       -2.40567621       -1.28985739
 C            1.63102958       -1.33958886       -2.34928812
 C            0.36146806       -1.88470833       -2.58229009
 C            3.03806931        0.62365042       -2.66406710
 C            2.48967821        1.93018435       -2.99088155
 C            2.14585348       -0.37462067       -3.20970227
 C            1.41795716        1.73707228       -3.94682042
 C            1.26688367        0.29865953       -4.14904253
 C            0.02865206        3.23050309       -2.58083938
 C            0.28979716        2.54126665       -3.83900953
 C           -1.89547294        3.12382079       -1.07903259
 C           -2.79675483        2.02454380       -0.76636716
 C           -1.41057166        3.24198777       -2.37019804
 C           -2.81905391       -0.34617925       -1.16599093
 C           -2.23763958       -1.35866464       -1.94271703
 C           -2.90902911        0.96191100       -1.65678437
 C           -0.45560544       -1.34675320       -3.57701819
 C            0.01240929       -0.24145893       -4.39658431
 C           -1.84298004       -1.09548006       -3.24375123
 C           -0.97665910        2.05645293       -4.35412143
 C           -2.01518842        2.42476985       -3.40658935
 C           -2.71658109        1.21360025       -3.01372108
 C           -1.11732688        0.64176434       -4.63818882
 C           -2.24473520        0.14435913       -3.86632380
