   70
C70 / DATE: 7/ 1/2024 / Origin: Program Fullerene / C70 from database
 C            1.22526174       -0.03832799        4.36764252
 C            2.46469239       -0.27424960        3.66964677
 C            2.40638262       -1.62832187        3.14896869
 C            0.38340661       -1.21241027        4.16979513
 C            1.02211791       -2.03909734        3.17297706
 C           -0.95183631       -0.73590069        3.90902153
 C            0.42981731        1.11574157        4.00067394
 C           -0.94649188        0.69904588        4.15063526
 C            0.77609881        1.88426275        2.88806169
 C            2.81101793        0.59128652        2.56030398
 C            1.92251795        1.56959791        2.13766087
 C            3.07041508       -1.61832532        1.87185343
 C            3.43481266       -0.24501784        1.55614780
 C            2.53875412       -2.37350057        0.84338965
 C            0.37906099       -2.27211027        1.95595464
 C            1.15042576       -2.61470498        0.83730969
 C           -1.65136810       -1.22378615        2.81030232
 C           -0.96648314       -1.90545886        1.78713324
 C           -2.86166080       -0.60850583        2.52648670
 C           -1.93416682        1.46533636        3.55539078
 C           -3.05327765        0.77010912        2.94695244
 C           -0.19039373        2.74265855        2.34745338
 C           -1.53976739        2.53240976        2.64520605
 C            0.11282486        3.47569306        1.20254355
 C            2.06312680        2.06944968        0.84826466
 C            1.36237964        3.21758992        0.51758859
 C            3.39358406        0.14056295        0.21308211
 C            2.64669780        1.27310555       -0.15193115
 C            3.18959746       -2.21959459       -0.36638304
 C            3.59380320       -0.87017602       -0.72807182
 C            2.64707571       -2.86266967       -1.53362428
 C            0.50430999       -2.95408642       -0.35738994
 C            1.26009666       -3.25853428       -1.49315850
 C           -1.59817062       -2.14737010        0.55505495
 C           -0.87298283       -2.75112090       -0.48698389
 C           -3.43024597       -0.73522691        1.20910714
 C           -2.88529297       -1.63489368        0.31028033
 C           -3.47819147        1.53381250        1.78667102
 C           -2.50899366        2.57575125        1.55918209
 C           -3.73015333        0.60157197        0.71921852
 C           -0.91082485        3.61057962        0.17791486
 C           -2.04511736        2.81502642        0.27018550
 C            1.17742399        3.56582127       -0.87290228
 C           -0.24810054        3.76902290       -1.09179981
 C            2.34108856        1.50058692       -1.50570101
 C            1.64365774        2.64484987       -1.88496576
 C            3.20715044       -0.65938567       -2.10725740
 C            2.81130525       -1.94941062       -2.65052204
 C            2.46787438        0.46685437       -2.43469063
 C            0.71696506       -2.98572158       -2.81096762
 C            1.60816585       -2.03129961       -3.45812189
 C           -1.46659714       -2.93833934       -1.73864200
 C           -0.65322458       -2.83846560       -2.93652879
 C           -3.30881100       -1.47375834       -1.00049456
 C           -2.71229241       -2.27433659       -2.03572078
 C           -3.33562178        0.91943404       -0.57561554
 C           -2.36024962        1.91657613       -0.77336773
 C           -3.44928759       -0.11405576       -1.49863458
 C           -0.64575269        2.91413047       -2.18455767
 C            0.57608323        2.52236425       -2.86087623
 C           -1.64324507        1.96028999       -1.98712436
 C            1.61475744        0.42084220       -3.53863778
 C            1.08714570       -0.85902353       -3.99038551
 C            0.54897503        1.39942456       -3.66725898
 C           -1.19071040       -1.74498448       -3.73477015
 C           -2.48897675       -1.40821581       -3.18210223
 C           -2.73956968       -0.04083348       -2.75373734
 C           -1.74407577        0.91129820       -2.90563042
 C           -0.35214012       -0.71360199       -4.13751950
 C           -0.69479672        0.65973606       -3.79198564
