   70
C70 / DATE: 7/ 1/2024 / Origin: Program Fullerene / C70 from database
 C            1.34400160        0.05217468        4.66542864
 C            2.51848572       -0.05224585        3.82416680
 C            2.52601357       -1.38614967        3.24996806
 C            0.50728127       -1.10948473        4.40148264
 C            1.21588595       -1.96409792        3.46871796
 C           -0.81249911       -0.63389492        4.03530970
 C            0.51143967        1.22905944        4.53907017
 C           -0.85768405        0.78456170        4.32640365
 C            0.80421856        2.19138032        3.49181012
 C            2.69410525        0.89003773        2.73038087
 C            1.75558259        1.89455181        2.51080061
 C            2.99861898       -1.27517257        1.88007734
 C            3.18712361        0.13683231        1.59685949
 C            2.40024255       -2.06299053        0.89684661
 C            0.54223833       -2.46221145        2.36181295
 C            1.29272034       -2.83603237        1.25213535
 C           -1.38127449       -1.08463155        2.85078984
 C           -0.81464986       -2.17504975        2.18521171
 C           -2.27555929       -0.25969651        2.17115032
 C           -1.45152532        1.67454778        3.34202104
 C           -0.48010795        2.72365030        3.08372167
 C           -2.14974788        1.12845028        2.26474613
 C           -0.55429920        3.39307285        1.87830084
 C            1.58885533        2.40598739        1.21943401
 C            0.60742743        3.36851197        1.00620920
 C            2.89882861        0.57502500        0.31540601
 C            2.15569023        1.74426633        0.12128843
 C            2.55154738       -1.67604384       -0.43865780
 C            2.94850175       -0.35898342       -0.70831856
 C            1.99304168       -2.47289153       -1.44700529
 C            0.66458933       -3.59564459        0.28007200
 C            1.11960232       -3.49652381       -1.09310713
 C           -1.47763331       -2.72236744        1.08295485
 C           -0.78767294       -3.61426129        0.26269016
 C           -3.01465342       -0.80220982        1.13355424
 C           -2.63301235       -2.10138583        0.60451476
 C           -3.39155708        0.04473484        0.01723848
 C           -2.36718701        1.92168928        1.13163939
 C           -1.69840704        3.14094969        1.02615069
 C           -2.99756652        1.37973430        0.00441110
 C            0.12656922        3.61536879       -0.33976749
 C           -1.33074681        3.63606777       -0.28158349
 C            1.82312338        2.12731177       -1.18913099
 C            0.75606209        3.00418054       -1.41847404
 C            2.97197870        0.11898238       -2.00648636
 C            2.37345234        1.41722585       -2.26167129
 C            1.99669536       -2.03315036       -2.76941330
 C            2.61995069       -0.76731296       -3.09165140
 C            0.77534822       -2.13325535       -3.55843776
 C           -0.02019277       -3.77504840       -1.94980079
 C           -1.20868759       -3.79728932       -1.11543758
 C           -0.27578584       -2.89194821       -3.07200889
 C           -2.93187277       -2.10091102       -0.82215712
 C           -3.26016609       -0.74023105       -1.20021514
 C           -2.17019253       -2.87325798       -1.68233691
 C           -1.55709363       -2.24254224       -2.84131073
 C           -2.66199386       -0.15745798       -2.31319981
 C           -1.67641510       -0.86225070       -3.02363944
 C           -2.90037692        2.02642230       -1.23101308
 C           -2.05070320        3.19816861       -1.37834284
 C           -2.76477655        1.22300889       -2.43827193
 C            0.08655439        2.97923009       -2.64170147
 C           -1.36120066        3.08690575       -2.64897574
 C           -1.88446762        1.92293372       -3.34460200
 C            1.65002658        1.32904877       -3.52122193
 C            1.72757232       -0.04581378       -3.98148236
 C            0.49775545       -0.81133168       -4.08383593
 C           -0.70749366       -0.18167568       -3.77953745
 C            0.43803137        1.98717972       -3.63703536
 C           -0.76195978        1.20419315       -3.90294446
