   70
C70 / DATE: 7/ 1/2024 / Origin: Program Fullerene / C70 from database
 C            1.33289943       -0.02404798        4.20828287
 C            2.60946663       -0.28564981        3.58930890
 C            2.55141210       -1.60644749        2.98419999
 C            0.48540306       -1.18713682        3.99592806
 C            1.20068282       -2.11287226        3.14365422
 C           -0.81366383       -0.71740464        3.56015505
 C            0.58742366        1.14394787        3.78587538
 C           -0.79161127        0.73257657        3.57032684
 C            1.15615470        2.07270384        2.91337721
 C            3.08776015        0.63662059        2.58158812
 C            2.42490937        1.84226611        2.34948616
 C            3.09581404       -1.50939023        1.63949386
 C            3.53227460       -0.14138265        1.43567034
 C            2.43423135       -2.15454218        0.60653881
 C            0.55808679       -2.62718805        2.02402619
 C            1.32877337       -2.94987514        0.91383703
 C           -1.44337773       -1.35325736        2.50145868
 C           -0.81453563       -2.42333018        1.85299198
 C           -2.47298432       -0.68036196        1.85638382
 C           -1.55913178        1.42340491        2.63541178
 C           -2.47828313        0.72010818        1.84686829
 C            0.29644738        3.00817296        2.34149812
 C           -1.11668349        2.68032620        2.22150658
 C            0.68574894        3.73753100        1.14906241
 C            2.82553965        2.55942899        1.22278527
 C            1.96618420        3.57998429        0.65075981
 C            3.43090980        0.43606194        0.17227197
 C            3.43423151        1.82578797        0.12352046
 C            2.57824236       -1.65895738       -0.68768597
 C            2.85148586       -0.29978182       -0.87590600
 C            2.07855506       -2.40977822       -1.74464158
 C            0.74481512       -3.70531807       -0.08974500
 C            1.24888433       -3.56172538       -1.44144646
 C           -1.46140870       -3.04268289        0.77652135
 C           -0.70590687       -3.76322260       -0.15479368
 C           -3.26798619       -1.39448725        0.96815960
 C           -2.75980159       -2.65191707        0.44865342
 C           -3.95269725       -0.70278132       -0.11152327
 C           -3.18404338        1.40209023        0.85736602
 C           -3.78902112        0.66563288       -0.23616058
 C           -1.60077521        3.25173696        0.97483765
 C           -0.44670478        3.72724850        0.23312856
 C           -2.62297691        2.61495765        0.29470901
 C           -0.26524782        3.34187520       -1.09599240
 C            2.16269318        3.56932647       -0.78785647
 C            3.09565202        2.49892062       -1.10682688
 C            1.00875056        3.41451154       -1.65689269
 C            2.40841732        0.33978623       -2.04782374
 C            2.52147865        1.72123870       -2.18096051
 C            1.38700023        2.46943459       -2.69060375
 C            1.48287540       -1.72238416       -2.87253702
 C            1.57389852       -0.33981912       -2.93863627
 C            0.11323216       -3.55385183       -2.34615269
 C           -1.08655438       -3.76507558       -1.56290156
 C            0.20772662       -2.36263969       -3.16774851
 C           -3.21481340       -2.77521501       -0.92459424
 C           -3.84510894       -1.52259265       -1.30121970
 C           -2.24779849       -3.11534494       -1.94813907
 C           -0.92418792       -1.57266809       -3.36784803
 C           -3.13678887       -0.99190805       -2.45180531
 C           -2.16243862       -1.98911161       -2.87259868
 C           -3.25495634        1.21222797       -1.47796519
 C           -2.49649479        2.40855502       -1.13791739
 C           -1.27964608        2.65224734       -1.76932716
 C           -2.78898551        0.35646698       -2.47839613
 C            0.38996918        1.77879311       -3.35592301
 C            0.56938663        0.35873055       -3.60450405
 C           -0.75149038       -0.23695937       -3.71832263
 C           -0.99157620        1.97335067       -2.95059965
 C           -1.71973583        0.75505622       -3.27364855
