   70
C70 / DATE: 7/ 1/2024 / Origin: Program Fullerene / C70 from database
 C            1.16454243        0.06131900        4.39137902
 C            2.39727252       -0.22130178        3.69955628
 C            2.40211519       -1.64117673        3.39633448
 C            0.35285070       -1.15080434        4.36393867
 C            1.03455023       -2.10758710        3.52611466
 C           -0.98863840       -0.75181370        4.00703002
 C            0.32395398        1.13294740        3.90065364
 C           -1.03011036        0.69248937        4.15719823
 C            0.60328423        1.74565494        2.67529793
 C            2.67036616        0.47697479        2.46208023
 C            1.74132048        1.38342058        1.93993441
 C            3.05853282       -1.81231369        2.11540436
 C            3.28603582       -0.48526982        1.56475842
 C            2.57275913       -2.79390467        1.26929619
 C            0.39867916       -2.61519658        2.39485891
 C            1.20091328       -3.25367802        1.45467179
 C           -1.60621960       -1.32596174        2.89690135
 C           -0.84901459       -2.10189329        2.00181572
 C           -2.79633520       -0.74457016        2.46537675
 C           -2.06075877        1.37816583        3.54521070
 C           -3.11746381        0.59419031        2.93266749
 C           -0.42473846        2.45013779        2.04483402
 C           -1.71355872        2.41895478        2.59348738
 C           -0.24235372        2.95289725        0.75426458
 C            1.81042173        1.68558354        0.57708252
 C            0.84957853        2.51689240       -0.00973278
 C            3.14045374       -0.27944198        0.19943431
 C            2.69938380        0.96663776       -0.22555147
 C            2.77250507       -2.63549504       -0.15637779
 C            3.03490383       -1.36930926       -0.67282440
 C            0.66763973       -3.56848909        0.14576012
 C            1.77128587       -3.45815803       -0.79905691
 C           -1.30302681       -2.28894353        0.68385811
 C           -0.58932829       -3.09393143       -0.21121236
 C           -3.16355477       -0.81642208        1.06542181
 C           -2.35789780       -1.51887859        0.19372437
 C           -3.63217319        1.35618965        1.80918779
 C           -2.86654658        2.58655910        1.72599845
 C           -3.66199811        0.48425834        0.64760563
 C           -1.32611253        3.57214826        0.13308459
 C           -2.66295196        3.13320241        0.47377197
 C           -1.32884187        3.74105872       -1.30195764
 C            0.95362864        2.85536484       -1.37001840
 C           -0.15671389        3.35180864       -2.04720748
 C            2.82031000        1.27302908       -1.56709675
 C            1.96399065        2.28879657       -2.14197481
 C            2.79733345       -1.12961676       -2.03025759
 C            2.92418779        0.17307111       -2.51006300
 C            1.48866223       -3.22648654       -2.13408591
 C            2.09642436       -2.07621036       -2.78882753
 C           -0.93546084       -3.08003140       -1.56387361
 C            0.10334752       -3.28635100       -2.55814788
 C           -2.37723194       -1.16400009       -1.14621993
 C           -1.81553645       -2.03602968       -2.06076463
 C           -3.26485264        1.00621571       -0.58539256
 C           -3.12846584        2.38965658       -0.68460523
 C           -2.44566157        2.95960244       -1.82275245
 C           -2.59919616        0.17021686       -1.49629666
 C           -0.63604897        2.63992671       -3.21989035
 C           -1.90968370        2.07266339       -2.83059066
 C           -1.99548944        0.69536206       -2.65227883
 C            1.65093968        1.87756567       -3.50163580
 C            2.21861629        0.55798179       -3.71734440
 C            0.25733735        1.83554890       -3.90575141
 C            1.18309835       -1.64199434       -3.84007336
 C           -0.08470292       -2.30836745       -3.61552630
 C           -1.24371066       -1.50112252       -3.27976347
 C           -1.17672281       -0.12178796       -3.43724199
 C            1.16524980       -0.30621562       -4.21014895
 C           -0.08537316        0.43626184       -4.11345159
