   70
C70 / DATE: 7/ 1/2024 / Origin: Program Fullerene / C70 from database
 C            1.22867879       -0.05823681        4.20523304
 C            2.44314614       -0.26454653        3.43514222
 C            2.42831027       -1.65048443        2.98672214
 C            0.38470099       -1.22814355        4.01275482
 C            1.05354940       -2.10209875        3.07412800
 C           -0.94708558       -0.76690821        3.68724898
 C            0.42261587        1.12073088        3.95441895
 C           -0.94562937        0.68800801        3.73098020
 C            0.94275869        2.13573822        3.17288525
 C            2.90137035        0.73518736        2.57353660
 C            2.20431784        1.93974156        2.46954309
 C            3.78802040        0.39202993        1.55481946
 C            3.17294933       -2.00207676        1.87376793
 C            4.06930915       -1.01156831        1.31260713
 C            2.50364253       -2.66380992        0.76374415
 C            0.38398600       -2.47101220        1.91172356
 C            1.11816083       -2.79434693        0.76457850
 C           -1.65928042       -1.39576863        2.67204782
 C           -1.00397740       -2.30548502        1.82938940
 C           -2.80766954       -0.75138100        2.22384746
 C           -1.76994790        1.38138367        2.84269334
 C           -2.87225908        0.69699341        2.32926501
 C            0.05579788        2.87601294        2.29627745
 C           -1.29063553        2.52758906        2.18952731
 C            2.09457261        2.58482905        1.16939934
 C            0.79024133        3.20245795        1.08388230
 C            3.66567399        1.04633754        0.25955840
 C            2.62687429        1.95309649        0.05657656
 C            4.12126437       -1.21905981       -0.12278517
 C            3.16016143       -2.25487899       -0.46347107
 C            4.00223843        0.07553261       -0.76835899
 C            2.39128832       -2.09651192       -1.61157280
 C            0.45933085       -2.97612614       -0.45031510
 C            1.10114250       -2.63351929       -1.64797986
 C           -1.67671783       -2.83458630        0.73117510
 C           -0.90737243       -3.23119275       -0.43445607
 C           -3.42612792       -1.14086704        0.96960043
 C           -2.89941455       -2.20387655        0.25957111
 C           -3.57172230        1.19652013        1.16131208
 C           -3.79841784        0.07208619        0.26170632
 C           -1.99944998        3.06610881        1.11486189
 C           -3.21369953        2.42663724        0.64004781
 C            0.10317691        3.20505377       -0.12115620
 C           -1.25072044        3.50720237       -0.05209612
 C            1.90480809        1.93631992       -1.14211079
 C            0.59731573        2.44483194       -1.19407709
 C            3.34611326        0.13675775       -1.98535496
 C            2.72504418       -1.07210471       -2.49782204
 C            2.40484615        1.21642618       -2.22272117
 C            1.76111353       -0.65123138       -3.49440865
 C            1.49581778        0.76459900       -3.25845026
 C            0.36888603       -2.54105897       -2.83305526
 C            0.70133797       -1.49487118       -3.78734808
 C           -1.71134760       -2.95477841       -1.61030503
 C           -2.82597143       -2.12008112       -1.18769773
 C           -1.07816756       -2.68421825       -2.81167221
 C           -3.51935376        0.19972266       -1.09994011
 C           -3.06916968       -0.90515331       -1.83148672
 C           -3.28849687        2.62814763       -0.79537775
 C           -2.08276372        3.32719328       -1.21510485
 C           -3.44038912        1.47321533       -1.66263035
 C           -0.21269300        2.17773842       -2.31500891
 C            0.18455174        1.22350371       -3.25559438
 C           -1.53610455        2.61417221       -2.34668458
 C           -2.56406181        1.69451287       -2.79709924
 C           -0.53942867       -0.90189928       -4.24389431
 C           -1.63963539       -1.66685987       -3.68077056
 C           -2.59638815       -0.72024035       -3.13024518
 C           -0.78517162        0.49764871       -3.94919175
 C           -2.17784335        0.60491590       -3.55432982
