   70
C70 / DATE: 7/ 1/2024 / Origin: Program Fullerene / C70 from database
 C            1.23162250        0.09925617        4.73694140
 C            2.51155389        0.02443855        4.06435470
 C            2.57413177       -1.26461851        3.39947699
 C            0.42494958       -1.02403438        4.27553576
 C            1.22505474       -1.78875739        3.34257373
 C           -0.84829980       -0.50088717        3.82460259
 C            0.44111526        1.30011246        4.57215988
 C           -0.91017318        0.88464875        4.23940121
 C            0.84063646        2.27746688        3.57227811
 C            2.84775884        1.03071142        3.06963376
 C            1.90680398        1.99993599        2.71257092
 C            3.27963001       -1.07076094        2.14667558
 C            3.59456500        0.34460853        2.03254610
 C            2.82524919       -1.73303234        1.01244005
 C            0.70066429       -2.09964497        2.09374888
 C            1.58248414       -2.38044796        1.05510320
 C           -1.30450721       -0.82570652        2.55062807
 C           -0.61998283       -1.76697845        1.78049794
 C           -2.20384705        0.02887541        1.92038467
 C           -1.43550491        1.85068947        3.29641150
 C           -0.38803144        2.82359497        3.03020706
 C           -2.19161681        1.39864150        2.22280721
 C           -0.35649219        3.42700721        1.78248362
 C            1.91871107        2.54060188        1.41905245
 C            0.84578801        3.31123650        0.97362080
 C            3.65038579        0.90675830        0.76613599
 C            2.81622163        2.05807624        0.46729035
 C            3.32488829       -1.32093069       -0.22118670
 C            3.61271395        0.03048703       -0.39475590
 C            2.96896532       -2.05281797       -1.34410023
 C            1.07406390       -2.93558046       -0.11359015
 C            1.95151620       -3.06679987       -1.18515063
 C           -1.09902373       -2.07680078        0.50501369
 C           -0.30418026       -2.84606232       -0.34688500
 C           -2.82794378       -0.39607917        0.75020392
 C           -2.24451664       -1.43460638        0.00747552
 C           -3.67708346        0.50916020        0.12590293
 C           -2.46891395        2.30906692        1.20776543
 C           -1.49503130        3.25496855        0.89295705
 C           -3.33694467        1.91382044        0.20184234
 C            0.43944322        3.21687944       -0.42319037
 C           -1.00339115        3.32039894       -0.47498353
 C            2.38820297        1.95476505       -0.92270643
 C            2.95625738        0.74794155       -1.47810545
 C            1.09395642        2.32069446       -1.25887956
 C            2.60567461       -1.32250096       -2.54490853
 C            2.24126032        0.01198249       -2.41341265
 C            1.44163998       -3.34818697       -2.50999282
 C            1.79521309       -2.20759432       -3.34701737
 C           -0.84744074       -3.31516728       -1.53738720
 C            0.02430490       -3.58220921       -2.66517132
 C           -2.74154511       -1.76868809       -1.26644870
 C           -2.03769183       -2.67424629       -2.06306265
 C           -4.12581300        0.25928425       -1.22490289
 C           -3.63029478       -0.90873713       -1.91251199
 C           -3.02543382        2.31202313       -1.15609251
 C           -1.70391589        2.63118532       -1.45374211
 C           -3.76427341        1.42391447       -2.02547665
 C            0.34762062        1.52260785       -2.13331816
 C            0.93937989        0.40936156       -2.76410968
 C           -0.99627534        1.84121678       -2.37030349
 C            0.57257399       -1.69318544       -3.91525176
 C           -0.42088404       -2.73673114       -3.75476475
 C           -1.77302122       -2.32590162       -3.45839820
 C            0.19254799       -0.37358309       -3.66412535
 C           -3.31828715       -0.48624732       -3.26440574
 C           -3.11496862        0.94749147       -3.22550824
 C           -1.68988005        1.17933597       -3.37845179
 C           -2.15477396       -1.06767211       -3.89037280
 C           -1.12756581       -0.02804886       -3.94805213
