   70
C70 / DATE: 7/ 1/2024 / Origin: Program Fullerene / C70 from database
 C            1.37746162       -0.06726716        3.99501948
 C            2.46016602       -0.14911949        3.03181728
 C            2.37759903       -1.45169258        2.38645224
 C            0.51633612       -1.22131802        3.79100552
 C            1.10093303       -2.03725498        2.74116845
 C           -0.83997366       -0.73887563        3.61568717
 C            0.54055950        1.11614194        4.01705530
 C           -0.84462373        0.67951309        3.92557896
 C            0.95480673        2.24465628        3.32221105
 C            2.80268072        0.96726179        2.26958912
 C            2.11542704        2.17051642        2.44347511
 C            3.52149302        0.77009335        1.09392081
 C            2.83245727       -1.58336488        1.08152364
 C            3.64286853       -0.57646073        0.56218672
 C            2.16452241       -2.44289014        0.20577079
 C            0.28176019       -2.51118185        1.72444656
 C            0.84988791       -2.84735287        0.49337999
 C           -1.57642836       -1.20607555        2.53163469
 C           -1.09293080       -2.29524319        1.80771190
 C           -2.60439071       -0.42316087        1.99662120
 C           -1.78635045        1.49410224        3.31361162
 C           -2.76623562        0.89382862        2.42412929
 C           -0.03122199        3.10756389        2.69107915
 C           -1.37815571        2.76236811        2.72777171
 C            1.85483516        3.01733483        1.28805581
 C            0.55151700        3.63186349        1.46542443
 C            3.30410275        1.66286544       -0.03395176
 C            2.26859133        2.59179384        0.02780327
 C            3.83235086       -0.46813677       -0.87521576
 C            3.54644934        0.90916542       -1.25174441
 C            2.68721805       -2.61206487       -1.07292050
 C            3.40534193       -1.51014191       -1.68667982
 C            1.88080184       -3.22701493       -2.10193669
 C            0.05037838       -3.45884180       -0.48367576
 C            0.51325139       -3.57945670       -1.79213419
 C           -1.92073781       -2.89423255        0.87392816
 C           -1.32324576       -3.55797446       -0.27118974
 C           -3.27962696       -0.85844411        0.85343117
 C           -3.09006036       -2.16582520        0.41525762
 C           -3.80534290        0.08155154       -0.03631898
 C           -3.16669876        1.90666737        1.46509742
 C           -2.22209405        3.00813393        1.56804124
 C           -3.62328092        1.50094507        0.21903090
 C           -0.24913384        3.85268274        0.35623751
 C           -1.67328449        3.55953019        0.41536087
 C            1.46977872        2.83586141       -1.09854007
 C            0.23420096        3.46436454       -0.95640982
 C            2.77962151        1.17459508       -2.37513608
 C            1.70575316        2.14656939       -2.28714850
 C            2.74834203       -1.21571229       -2.95081670
 C            1.85036742       -2.31850641       -3.23958812
 C            2.32220578        0.07957777       -3.21567854
 C           -0.31272758       -3.08141070       -2.88186843
 C            0.45478572       -2.03294762       -3.52345322
 C           -2.21591074       -3.37090785       -1.40228743
 C           -3.27882280       -2.47137736       -0.99215074
 C           -1.65870152       -2.86412323       -2.64252640
 C           -3.64340903       -0.11411304       -1.46913374
 C           -3.32514645       -1.37518538       -1.94137363
 C           -2.18459360       -1.52162322       -2.83075731
 C           -3.06215420        2.09118648       -0.98902232
 C           -2.08339349        3.06771061       -0.89113874
 C           -0.89705504        2.96532074       -1.72256573
 C           -2.89581997        1.02593532       -1.96273767
 C            0.57008491        1.63175269       -3.03843339
 C            0.92272572        0.32090673       -3.54282985
 C            0.00079888       -0.71648904       -3.45645484
 C           -1.29773616       -0.45567385       -3.00755576
 C           -0.71128746        1.86281664       -2.55544959
 C           -1.65188707        0.82628422       -2.56169194
