   70
C70 / DATE: 7/ 1/2024 / Origin: Program Fullerene / C70 from database
 C            1.33315219       -0.00210664        4.83128923
 C            2.50151481       -0.17717442        3.99666643
 C            2.49960591       -1.54861575        3.51063416
 C            0.50024543       -1.18607136        4.68163086
 C            1.23443508       -2.15338790        3.88341536
 C           -0.81015352       -0.74932589        4.22296440
 C            0.49267884        1.15361334        4.60281281
 C           -0.87059211        0.67664358        4.43016220
 C            0.77932474        2.03263896        3.47955183
 C            2.69024375        0.69357738        2.84695808
 C            1.76217426        1.69353620        2.55144332
 C            2.87966213       -1.51873681        2.10636467
 C            3.18333348       -0.13926360        1.77082988
 C            2.17758093       -2.29351466        1.17916906
 C            0.54223358       -2.87686034        2.92503215
 C            1.16557889       -3.12979703        1.63458436
 C           -1.33131092       -1.29679875        3.05052805
 C           -0.84592577       -2.53550821        2.65520301
 C           -2.00756910       -0.48527476        2.11818844
 C           -1.47782872        1.48339745        3.40276859
 C           -0.50599807        2.48357979        2.99131840
 C           -2.23354967        0.87214147        2.41046949
 C           -0.60309156        2.96755701        1.69456581
 C            1.60814914        2.10699872        1.22412965
 C            0.53093840        2.93196455        0.87868351
 C            2.96701529        0.26295077        0.46846607
 C            2.37512537        1.49960612        0.22068192
 C            2.19057388       -1.90383392       -0.16656891
 C            2.85555026       -0.72268115       -0.49703504
 C            1.29443550       -2.47749250       -1.08735150
 C            0.09363291       -3.48412736        0.73406013
 C           -1.15107295       -3.02937585        1.33628478
 C            0.24784482       -3.29497217       -0.62974555
 C           -2.34474460       -1.00376705        0.84755085
 C           -2.04741616       -2.33929596        0.53432275
 C           -2.87607397       -0.16007310       -0.14250515
 C           -2.67637216        1.71797381        1.40540005
 C           -1.85578677        2.87785511        1.09569693
 C           -3.13922868        1.16911855        0.15471921
 C           -2.00111315        3.16567249       -0.31756126
 C           -2.92460048        2.18368946       -0.86420708
 C            0.43412817        3.41316014       -0.42372219
 C           -0.87767579        3.53659911       -1.04298440
 C            2.25530874        1.91504007       -1.10834934
 C            1.35750595        2.92890568       -1.43348310
 C            2.94308563       -0.32854705       -1.81721731
 C            2.74390138        1.07934070       -2.11491344
 C            1.32646133       -2.06090797       -2.43111440
 C            2.25063714       -1.09831802       -2.82693266
 C            0.25924292       -2.34425515       -3.28563823
 C           -0.92544945       -3.36025285       -1.36751046
 C           -2.11899711       -2.76394866       -0.78834836
 C           -0.89666226       -3.03931050       -2.77184893
 C           -2.93481648       -0.57360539       -1.47634481
 C           -2.69956547       -1.90163150       -1.79135450
 C           -2.06798494       -2.22825743       -3.06039608
 C           -2.79944545        1.78372289       -2.18520301
 C           -2.93065264        0.37377053       -2.50194707
 C           -0.75861263        3.14280064       -2.43707632
 C            0.64829805        2.90022385       -2.70747738
 C           -1.72588604        2.32240413       -3.00855428
 C            2.19728767        1.16773649       -3.45632042
 C            1.91129513       -0.18504214       -3.90754340
 C            1.01715724        1.97832069       -3.67925474
 C           -0.23009540       -1.31668329       -4.19406212
 C           -1.65290476       -1.14809223       -3.93801334
 C           -2.16431637        0.12314711       -3.71332011
 C           -1.33409465        1.29219190       -3.95951871
 C            0.56406889       -0.20530863       -4.44520855
 C            0.00617997        1.13233731       -4.29791429
