   70
C70 / DATE: 7/ 1/2024 / Origin: Program Fullerene / C70 from database
 C            1.39624446       -0.00623311        4.53409488
 C            2.65153377       -0.17856414        3.83022957
 C            2.60509492       -1.46052684        3.14825182
 C            0.55865308       -1.15622307        4.24019216
 C            1.29087742       -2.03469109        3.34501363
 C           -0.74104589       -0.67081897        3.81122424
 C            0.61793337        1.19034427        4.27854344
 C           -0.69885623        0.78029273        3.80452426
 C            1.23630709        2.27769992        3.67679493
 C            3.05767077        0.82891389        2.86296647
 C            2.43470579        2.06740276        2.86641328
 C            3.05880934       -1.25777660        1.79128563
 C            3.28644058        0.16217075        1.59210603
 C            2.43851196       -1.95162847        0.76742485
 C            0.61798068       -2.55248174        2.24285430
 C            1.29806570       -2.72181303        1.03107290
 C           -1.36874005       -1.31559369        2.75797618
 C           -0.76855100       -2.45410634        2.21910995
 C           -2.25362548       -0.58562431        1.96987388
 C           -1.30630674        1.48075020        2.75775279
 C           -2.02443737        0.77904915        1.78119340
 C            0.40063761        3.22520139        2.96934444
 C           -0.90791152        2.78795251        2.51097364
 C            2.23142480        2.74734639        1.60050810
 C            1.14188370        3.67113889        1.80397019
 C            2.84973632        0.74457232        0.39697032
 C            2.28204942        2.02417667        0.40644824
 C            2.62223899       -1.47163093       -0.51590857
 C            2.65285734       -0.08440725       -0.71001375
 C            2.27156044       -2.31330280       -1.55376228
 C            0.62376747       -3.31982275       -0.04628756
 C            1.17407418       -3.23433882       -1.32782749
 C           -1.45854974       -3.17255941        1.25669954
 C           -0.73444167       -3.61950794        0.07826791
 C           -3.06132321       -1.27720059        1.07974095
 C           -2.75070465       -2.67222109        0.82570473
 C           -3.39905020       -0.66033372       -0.18728463
 C           -2.31350087        1.37286096        0.53833689
 C           -2.89553376        0.60405280       -0.48164122
 C           -1.09979852        3.34777473        1.19232494
 C            0.19450103        3.82698250        0.73221131
 C           -1.90387204        2.68635873        0.26839809
 C            1.55276232        2.47125340       -0.70873851
 C            0.57137961        3.47010482       -0.55014701
 C            2.19656671        0.46851328       -1.90843338
 C            1.61852785        1.74008668       -1.90583862
 C            2.15315475       -1.77513408       -2.88893299
 C            2.08430644       -0.33801581       -3.04167858
 C            0.28973646       -3.14365990       -2.48012832
 C            0.96136576       -2.34742887       -3.49316107
 C           -1.61279104       -3.45581791       -1.07245519
 C           -2.87227307       -2.91019436       -0.59903727
 C           -3.37748018       -1.69828632       -1.20876421
 C           -1.07817567       -2.99664790       -2.27226719
 C           -2.93783840       -1.37332261       -2.48033971
 C           -1.81405781       -2.10220022       -3.05783717
 C           -2.76573209        0.99064137       -1.81893640
 C           -2.77012951        0.02430760       -2.82437794
 C           -1.76001887        3.08468888       -1.05910640
 C           -0.44865080        3.55007127       -1.48182442
 C           -2.29048821        2.25800057       -2.12127273
 C            0.88126689        2.15552501       -3.01735828
 C           -0.20891752        3.07919125       -2.82081906
 C           -1.42407550        2.42847885       -3.27722537
 C            1.04203840       -0.06505118       -4.01364826
 C            0.23797071       -1.27249673       -4.14190446
 C           -1.14005914       -1.20160411       -3.98681272
 C           -1.78708963        0.09746489       -3.89484664
 C            0.42279331        1.17347172       -3.98514975
 C           -1.03140306        1.25442554       -4.03503071
