   70
C70 / DATE: 7/ 1/2024 / Origin: Program Fullerene / C70 from database
 C            1.51369893        0.09954567        5.08083432
 C            0.65746781       -1.02785533        5.39381871
 C            1.17117967       -2.17134732        4.66973347
 C            2.46665406       -0.32306059        4.06412003
 C            2.19954473       -1.70670000        3.75195797
 C            2.41377148        0.64115655        2.98733915
 C            0.67962306        1.11770374        4.47811240
 C            1.39403044        1.61634602        3.32381104
 C           -0.66878270       -0.75002869        4.86061742
 C           -0.63693591        0.55496602        4.24501171
 C            0.02898929       -2.85348998        4.10178641
 C           -1.05627494       -1.87709411        4.04326888
 C            0.25574292       -3.61919371        2.97405270
 C            2.10893755       -2.09911080        2.41781775
 C            1.40551674       -3.27044934        2.14441003
 C            2.46233810        0.20049766        1.66410842
 C            2.32090796       -1.16716660        1.38391612
 C            2.11157714        1.12612681        0.67292062
 C            0.64575311        2.09431149        2.26620024
 C            1.28718574        2.19025273        1.04281831
 C           -1.18434853        0.72672093        2.97702043
 C           -0.71513930        1.79554897        2.22609186
 C           -1.69703259       -1.65073176        2.82077409
 C           -1.76458712       -0.35027556        2.29211403
 C           -0.86054424       -3.81175965        2.07474939
 C           -1.83028472       -2.73737921        1.96419352
 C            1.07092563       -3.59605088        0.77687941
 C           -0.30903517       -4.03719696        0.75779465
 C            2.14328504       -1.55999478        0.05218282
 C            1.47650837       -2.75487371       -0.24558033
 C            2.16341248        0.74402572       -0.67064168
 C            2.30236717       -0.61427469       -0.97006258
 C            1.73562989        1.65233255       -1.65752413
 C            0.61109564        2.88339727        0.05429804
 C            1.10514446        2.83359903       -1.24180158
 C           -1.38312235        2.12299195        1.05933389
 C           -0.76011518        3.05013857        0.24104181
 C           -2.17672040       -0.14765117        0.96130812
 C           -2.16223502        1.14724973        0.43507733
 C           -2.07567391       -2.51827859        0.55108302
 C           -1.19475461       -3.40164068       -0.19431424
 C           -2.26138248       -1.22436812        0.07395407
 C            0.76095048       -2.82277816       -1.43317754
 C           -0.63396498       -2.89305913       -1.35251837
 C            2.15480939       -1.04164488       -2.28609311
 C            1.31927015       -2.20380429       -2.53759178
 C            1.70557985        1.26574801       -3.00840676
 C            1.89273653       -0.07269825       -3.33375675
 C            1.05212815        2.06598225       -3.95124670
 C            0.54222202        3.70661602       -2.16801602
 C            0.61014081        3.38927359       -3.57430409
 C           -1.50911626        3.56182295       -0.80016373
 C           -0.79753904        4.18931995       -1.89165165
 C           -2.49670837        1.34532170       -0.91073582
 C           -2.48714168        2.66009416       -1.37845222
 C           -2.08626136       -0.99583948       -1.29779626
 C           -1.37210576       -1.94185304       -2.04342457
 C           -2.30122125        0.28804318       -1.81235817
 C            0.44039157       -1.87712469       -3.64022985
 C            0.96035265       -0.68170326       -4.26470652
 C           -0.95461763       -1.64005557       -3.32876196
 C            0.00173425        1.47217339       -4.77504112
 C           -2.07416409        0.53604379       -3.17959450
 C           -0.17765795        0.10484974       -4.68682475
 C           -1.32451887       -0.37492805       -3.92103499
 C           -0.71438545        3.59053485       -4.14486459
 C           -1.60493984        4.00729774       -3.07932908
 C           -2.52419445        2.91250985       -2.80214970
 C           -1.17396465        2.29821062       -4.60793761
 C           -2.20213247        1.82470788       -3.69445948
