   70
C70 / DATE: 7/ 1/2024 / Origin: Program Fullerene / C70 from database
 C            1.50320870        0.05603580        4.53614341
 C            0.68864725       -1.10144782        4.24697676
 C            1.38223020       -1.89905915        3.25422467
 C            2.62296353        0.03686327        3.61041011
 C            2.44100197       -1.07173646        2.70233884
 C            2.71490266        1.35136778        3.04081739
 C            0.70523577        1.23138113        4.23115795
 C            1.52398654        2.09316408        3.42629958
 C           -0.64318982       -0.63744558        3.90980868
 C           -0.55189878        0.79249043        3.67110189
 C           -1.35548710       -1.39719207        3.00088902
 C            0.59606170       -2.61282009        2.36921587
 C           -0.78253887       -2.59220883        2.57055792
 C            1.05898356       -2.77480073        1.06939968
 C            2.46518263       -0.83595196        1.32386732
 C            1.80305683       -1.74171482        0.48628713
 C            3.11835504        1.48481294        1.72153650
 C            2.86575214        0.41865281        0.82837181
 C            3.02505690        2.78279090        1.24442085
 C            0.92613266        2.85030965        2.43112547
 C            1.83414222        3.52458826        1.62991254
 C           -0.96116574        1.29827415        2.43293526
 C           -0.26513830        2.36884141        1.84181050
 C           -2.21169227       -0.73753090        2.12807224
 C           -1.85530772        0.53704026        1.67046468
 C           -3.08639401       -1.51758754        1.38695669
 C           -1.56302598       -3.44779651        1.80576947
 C           -2.84122814       -2.95123130        1.32660139
 C            0.38380087       -3.67912552        0.26367460
 C           -0.92210589       -4.14663528        0.70538516
 C            0.30679076       -3.43816171       -1.15956795
 C            1.67326712       -1.46844533       -0.88121184
 C            1.01047760       -2.37733933       -1.71989528
 C            2.78959519        0.66163691       -0.55551585
 C            2.12715687       -0.24557836       -1.39125699
 C            3.27180021        3.03148034       -0.14773235
 C            3.09116061        1.92932395       -1.06385715
 C            1.35407986        4.22600602        0.47304112
 C            2.38097962        4.10731007       -0.54803484
 C           -0.63670534        2.79585724        0.55356678
 C            0.09831640        3.79355626       -0.09506691
 C           -2.17632076        0.92942273        0.36488317
 C           -1.53112747        2.03312369       -0.20708843
 C           -3.47640997       -1.08167277        0.06503697
 C           -3.07320322        0.16632128       -0.39802574
 C           -3.00497541       -3.38360779       -0.05053801
 C           -1.82455830       -4.11887491       -0.43264498
 C           -1.07275754       -3.64919095       -1.57538977
 C           -3.36406479       -2.22196956       -0.83368838
 C           -1.63663183       -2.73394910       -2.46108474
 C           -2.79277892       -2.01380624       -2.08684176
 C            0.62354189       -1.97622217       -2.99422044
 C           -0.75797680       -2.19631484       -3.39863258
 C            1.70136454        0.19060865       -2.65195763
 C            1.03276410       -0.68360369       -3.49549298
 C            2.32150370        2.43641482       -2.18657940
 C            1.72688133        3.69061344       -1.76682172
 C            0.29610890        3.69803740       -1.53096899
 C            1.49787516        1.54985018       -2.85468713
 C           -1.56918138        2.22778363       -1.59330585
 C           -0.45364266        2.76545081       -2.22300550
 C            0.20703903        1.97538391       -3.16152598
 C           -3.15959972        0.38024006       -1.76962149
 C           -3.04927494       -0.76912437       -2.65694740
 C           -2.43735847        1.47786714       -2.37222743
 C           -1.16822137       -1.08952189       -4.23433356
 C           -0.05747079       -0.15580984       -4.30289450
 C           -0.56271721        1.16928157       -3.98845987
 C           -2.34865061       -0.35427439       -3.85224890
 C           -1.97660393        1.03956887       -3.68168912
