   70
C70 / DATE: 7/ 1/2024 / Origin: Program Fullerene / C70 from database
 C            0.38788568        0.61622080        6.74574273
 C           -0.46619754       -0.55932390        6.74574273
 C            0.37668431       -1.72673189        6.55068111
 C            1.75862147        0.17534143        6.55068111
 C            1.75169210       -1.27267880        6.43012298
 C            2.22203287        0.72131704        5.28547064
 C            0.01862541        1.42999842        5.59900241
 C            1.19768090        1.61345990        4.77020738
 C           -1.35425374       -0.45960763        5.59900241
 C           -1.15258505        0.83740206        4.97623687
 C            0.00063265       -2.33617807        5.28547064
 C           -1.16438780       -1.63764875        4.77020738
 C            2.21090534       -1.60631676        5.09169432
 C            2.63840253       -0.38193046        4.43681782
 C            1.17854868       -2.39124691        4.43681782
 C            2.38850042       -0.26719405        3.07299402
 C            1.01052109        1.64131723        3.39186319
 C            1.93332279        0.96163436        2.59943821
 C           -1.23739793        0.89902222        3.58891290
 C           -0.29887770        1.67956388        2.91703642
 C           -1.24871726       -1.46825758        3.39186319
 C           -1.68971846       -0.23476420        2.91703642
 C            0.99220386       -2.18903138        3.07299402
 C            1.92200706       -1.39641986        2.40312645
 C           -0.31713903       -2.13586059        2.59943821
 C            1.76069170       -1.27921740        1.02649318
 C            1.77205381        1.07526422        1.22248407
 C            2.07508504       -0.04808375        0.45916610
 C           -0.45675575        1.79207031        1.53960675
 C            0.70527064        1.84929574        0.77615853
 C           -1.84550544       -0.11937965        1.53960675
 C           -1.52944077        1.11120376        0.97202220
 C           -0.47504230       -2.01759824        1.22248407
 C            0.68696691       -1.95866446        0.45916610
 C           -1.54084415       -1.24221605        0.77615853
 C            0.52813812       -1.84327361       -0.91789832
 C            1.91626103        0.06731367       -0.91789832
 C            1.45847714       -1.05964566       -1.59376963
 C            0.54646627        1.96469838       -0.60094034
 C            1.46991187        1.29485530       -1.39778525
 C           -1.68821377        1.22655910       -0.40504145
 C           -0.75891181        2.01160586       -1.08067482
 C           -1.69967183       -1.12684550       -0.60094034
 C           -0.77725282       -1.79810156       -1.39778525
 C           -2.14766751        0.10014763       -1.08067482
 C           -0.93701577       -1.68558823       -2.77500843
 C            1.30211901       -0.94604484       -2.97125131
 C            0.23013819       -1.63536995       -3.53443428
 C            1.31353588        1.41203036       -2.77500843
 C            1.62644586        0.28648268       -3.53443428
 C           -0.91867505        2.12989288       -2.45739786
 C            0.24851996        2.19503310       -3.21560220
 C           -2.30953471        0.21553879       -2.45739786
 C           -2.01080365       -0.91465906       -3.21560220
 C           -1.99939306        1.45264409       -3.01853870
 C           -2.24348803       -0.85368634       -4.58593177
 C            0.09947496       -1.60725063       -4.91926756
 C           -1.23853854       -1.43583980       -5.45879053
 C            1.55932564        0.40206145       -4.91926756
 C            0.97173667       -0.70600802       -5.65252154
 C            0.11862803        2.39748749       -4.58593177
 C            0.98283534        1.62161904       -5.45879053
 C           -2.23161821        1.62136554       -4.37987014
 C           -2.59343179        0.44070112       -5.14526927
 C           -1.22054617        2.33031607       -5.14526927
 C           -1.14679169       -0.61985268       -6.65850947
 C            0.22822049       -0.16581189       -6.77900650
 C            0.23513681        1.28220872       -6.65850947
 C           -1.98968254        0.54756045       -6.46346410
 C           -1.13560666        1.72309506       -6.46346410
