   70
C70 / DATE: 7/ 1/2024 / Origin: Program Fullerene / C70 from database
 C            1.25610116       -0.10692138        4.90998329
 C            2.54037480       -0.47061016        4.35075561
 C            2.35253866       -1.71274993        3.60696572
 C            0.39598425       -1.26521365        4.76723801
 C            0.94916085       -2.06270856        3.68989903
 C           -0.95018920       -0.76297808        4.62266678
 C            0.53477237        1.01490069        4.32858267
 C           -0.86580275        0.68210767        4.43174784
 C            1.01533103        1.60339565        3.15859366
 C            3.17815323        0.47214332        3.45751837
 C            2.38408961        1.55863284        2.90629448
 C            2.94643855       -1.53420724        2.29705569
 C            3.67913834       -0.28847124        2.32972860
 C            2.19355581       -1.80836055        1.16025157
 C            0.21848764       -2.21344505        2.51075301
 C            0.88912137       -2.29619192        1.28366591
 C           -1.75747862       -1.26616715        3.53306647
 C           -1.17035007       -2.03972749        2.52846873
 C           -1.74534005        1.01408828        3.32991962
 C           -2.58449587       -0.15022863        3.13241036
 C            0.13640228        1.94525300        2.11679480
 C           -1.23416603        1.65668675        2.20370781
 C            0.64757623        2.46614559        0.92178902
 C            2.85768509        1.76117970        1.55515982
 C            3.58507264        0.56880898        1.16780841
 C            2.00134831        2.29931841        0.60808338
 C            2.58572197       -1.23816937       -0.05114510
 C            3.23424000        0.00519061       -0.04985975
 C            1.96517831       -1.67071181       -1.22127554
 C            0.15994133       -2.55926179        0.12315425
 C            0.78052654       -2.40309598       -1.12452821
 C           -1.88489694       -2.20308373        1.34275654
 C           -1.23105193       -2.68332250        0.20899312
 C           -3.25623496       -0.26455044        1.93365840
 C           -3.07364355       -1.48829090        1.18113024
 C           -2.00980858        1.65315629        1.03988407
 C           -3.11581085        0.80487264        0.96335813
 C           -0.23327544        2.79696226       -0.11136116
 C           -1.49954662        2.20572236       -0.13381380
 C            0.31044197        3.29265873       -1.29542501
 C            2.34341179        2.10978348       -0.72854257
 C            2.94123413        0.89350542       -1.07978771
 C            1.63458428        2.83989823       -1.67135541
 C            2.27706726       -1.01844557       -2.41381554
 C            2.73623411        0.35354196       -2.34177850
 C            1.40068497       -1.13866238       -3.56657669
 C            0.10953895       -2.77387613       -2.28688304
 C            0.33109459       -2.02078249       -3.51058021
 C           -1.98146878       -2.88075579       -0.94804686
 C           -1.30228146       -3.07449295       -2.21324999
 C           -3.55491819       -1.20558166       -0.15656706
 C           -3.48701826        0.23892300       -0.32321673
 C           -3.12102167       -2.01287693       -1.19200737
 C           -2.11636984        1.90462516       -1.35621784
 C           -2.90596520        0.75982312       -1.47040449
 C           -0.50057584        3.32808562       -2.49634249
 C           -1.73622844        2.57823790       -2.50894152
 C            1.57480530        2.38729934       -3.04857606
 C            2.04343533        1.11891263       -3.36172145
 C            1.22084999        0.19209097       -4.13100434
 C            0.31741234        2.85363959       -3.60307455
 C           -1.80399187        1.87231030       -3.77315000
 C           -0.02893288        0.58198031       -4.60341288
 C           -0.49025099        1.94369919       -4.39274742
 C           -0.96851760       -1.61605194       -4.02848635
 C           -1.98031941       -2.25731281       -3.20782173
 C           -2.93081403       -1.41943442       -2.50123285
 C           -2.82137070       -0.03530479       -2.61931442
 C           -1.17142919       -0.29609580       -4.41839306
 C           -2.21416957        0.48056123       -3.76118567
