   70
C70 / DATE: 7/ 1/2024 / Origin: Program Fullerene / C70 from database
 C            1.12041044       -0.07867066        4.60993992
 C            2.37235641       -0.44824871        3.98568743
 C            2.20183481       -1.77116350        3.40206183
 C            0.26352373       -1.25012868        4.56904207
 C            0.81308568       -2.14602053        3.56742746
 C           -1.09069059       -0.77590570        4.39767440
 C            0.36350109        1.02259541        4.03921765
 C           -1.03081872        0.65900773        4.14640622
 C            0.82432057        1.62625527        2.86958043
 C            2.89550244        0.40946456        2.94322006
 C            2.18927170        1.54943633        2.57092695
 C            2.75238365       -1.72949882        2.06292783
 C            3.40369803       -0.44757384        1.88686182
 C            2.00945293       -2.22096219        1.00785779
 C            0.05524690       -2.45556030        2.43681584
 C            0.69910127       -2.67531009        1.20893409
 C           -1.89193840       -1.35383665        3.34000573
 C           -1.33533588       -2.29588531        2.47770389
 C           -1.90876329        0.93983866        3.03017240
 C           -2.66033053       -0.26942447        2.76220387
 C           -0.08776151        2.04156846        1.88013908
 C           -1.43533517        1.66541508        1.94371614
 C            0.38447271        2.70149677        0.74002213
 C            2.66724988        2.22988108        1.46424631
 C            1.74109875        2.99941286        0.66257233
 C            3.49692131        0.09940797        0.60619246
 C            3.50517024        1.48939211        0.53489019
 C            2.41821119       -1.88641348       -0.27190874
 C            3.02649900       -0.64003550       -0.49571432
 C            1.88683170       -2.61626203       -1.31966279
 C           -0.03505931       -3.14354073        0.11181209
 C            0.56680690       -3.19168509       -1.14713718
 C           -2.08735815       -2.63784720        1.36203257
 C           -1.42410824       -3.13466093        0.17183626
 C           -3.17369751       -0.44347604        1.48562393
 C           -3.13260164       -1.72207615        0.93135700
 C           -2.18386418        1.63016255        0.77013317
 C           -3.17572744        0.64831371        0.62280513
 C           -0.42177776        2.78456856       -0.40867666
 C           -1.75952021        2.37471248       -0.33028348
 C            0.14919979        3.09255093       -1.65926727
 C            2.36064561        3.15242291       -0.63447076
 C            3.39743782        2.13797963       -0.74881716
 C            1.52490493        3.05213359       -1.80374885
 C            2.98834739       -0.05059196       -1.77484810
 C            3.09448337        1.32808954       -1.90649748
 C            2.08813326        2.03628250       -2.67957806
 C            1.98014037       -2.09962695       -2.66389623
 C            2.42576762       -0.73734311       -2.84437375
 C           -0.21939175       -2.82831519       -2.31731706
 C            0.67235526       -2.23297559       -3.28476552
 C           -2.17973785       -2.67409041       -0.98557734
 C           -3.30162950       -1.88508429       -0.50510126
 C           -1.48492710       -2.28696587       -2.12958912
 C           -3.81301636        0.49271161       -0.60112425
 C           -3.73066257       -0.80169967       -1.25486700
 C           -2.59485335        2.48611867       -1.43940347
 C           -3.64487029        1.50650861       -1.61887206
 C           -0.57030351        2.83658401       -2.81531005
 C           -2.00437275        2.69551686       -2.73996321
 C            1.22394697        1.31236389       -3.50504545
 C            1.45028274       -0.05547809       -3.68465528
 C            0.31513343       -0.95355979       -3.85172402
 C           -0.06129535        1.81740468       -3.72081518
 C           -1.87310532       -1.12938493       -2.82475591
 C           -3.12516701       -0.57198708       -2.55192332
 C           -3.38885592        0.81682254       -2.87464595
 C           -2.37820174        1.56735663       -3.57941764
 C           -0.96737366       -0.45362639       -3.66612621
 C           -1.15527734        0.89313975       -3.96216634
