   70
C70 / DATE: 7/ 1/2024 / Origin: Program Fullerene / C70 from database
 C            1.22257926       -0.04436827        4.48276129
 C            2.55847002       -0.27813403        3.96780445
 C            2.59525247       -1.63271371        3.44573439
 C            0.41740601       -1.21496882        4.17286419
 C            1.23059616       -2.12732873        3.39853760
 C           -0.82729431       -0.75513317        3.60420073
 C            0.49003781        1.12624896        4.03333063
 C           -0.83769537        0.69440047        3.62509846
 C            1.14134503        2.09078308        3.27842657
 C            3.08384286        0.60418800        2.94035485
 C            2.42758811        1.79338126        2.65636936
 C            3.35899036       -1.61501250        2.21337457
 C            3.55656375       -0.22268290        1.84133809
 C            2.99990437       -2.50857506        1.21768859
 C            0.74380818       -2.62510983        2.19026725
 C            1.66618372       -3.09695735        1.25748317
 C           -1.33374155       -1.38234389        2.48152632
 C           -0.55314273       -2.30243029        1.76585165
 C           -2.37842937       -0.75192549        1.82663107
 C           -1.49627375        1.36758039        2.59218012
 C           -2.39162383        0.65062165        1.78115293
 C            0.36857183        2.86531479        2.32806518
 C           -0.98363270        2.58937302        2.14172230
 C            2.36576503        2.25012712        1.27990544
 C            1.19265614        3.08868870        1.15112445
 C            3.31972387        0.16359920        0.51998716
 C            2.67704342        1.37805347        0.24814455
 C            3.25040748       -2.14132475       -0.16197996
 C            3.42627173       -0.79616045       -0.48836202
 C            1.24798571       -3.32585941       -0.11632744
 C            2.36429764       -2.96043252       -0.97041271
 C           -0.98678205       -2.71471331        0.49814851
 C           -0.04545421       -2.98645270       -0.49513254
 C           -3.06109688       -1.49218527        0.87815716
 C           -2.30792567       -2.47878003        0.12948400
 C           -3.96736152       -0.82593348       -0.02565942
 C           -3.12488631        1.32631173        0.79584821
 C           -3.91475066        0.61610882       -0.10821562
 C           -1.60182031        3.22146626        1.07116809
 C           -2.80122659        2.64482218        0.50014742
 C            0.54951714        3.19502188       -0.07784147
 C           -0.76344354        3.64907788       -0.03772679
 C            2.13291617        1.61211360       -1.01333346
 C            0.96394641        2.37534519       -1.14192597
 C            3.25671479       -0.40389985       -1.81191344
 C            2.58593827        0.85525334       -2.08480808
 C            2.11238893       -2.57391330       -2.27523126
 C            2.77377139       -1.38124046       -2.77239638
 C           -0.31266756       -2.64828596       -1.82799093
 C            0.73659891       -2.53221401       -2.74154122
 C           -2.62441288       -2.29443266       -1.27429096
 C           -3.73869131       -1.36312893       -1.35651849
 C           -1.58367135       -2.19789830       -2.19087604
 C           -3.88964474        0.97258614       -1.52014787
 C           -3.65826291       -0.24641563       -2.28026264
 C           -2.87425841        3.09920711       -0.87881289
 C           -1.56434722        3.62011613       -1.23718025
 C           -3.27256966        2.15549216       -1.90770892
 C            0.16198647        2.23205225       -2.28927127
 C           -1.08062473        2.85822873       -2.36371721
 C           -2.20997649        2.12136669       -2.90253927
 C            1.72393296        0.66901118       -3.23583177
 C            1.85968206       -0.70878594       -3.67595996
 C            0.66196107       -1.52111114       -3.78257468
 C            0.45971770        1.24297643       -3.22808574
 C           -1.72732451       -1.36623444       -3.30279907
 C           -2.68332716       -0.26796021       -3.26896748
 C           -1.96090034        0.95157327       -3.60605474
 C           -0.54496659       -0.87275603       -3.98468024
 C           -0.58213599        0.57731176       -3.87780052
