   70
C70 / DATE: 7/ 1/2024 / Origin: Program Fullerene / C70 from database
 C            1.26302813       -0.20940234        4.21490942
 C            2.53725449       -0.47956667        3.58905110
 C            2.44026353       -1.76482921        2.91418654
 C            0.42438529       -1.38076487        4.01992504
 C            1.07001500       -2.22516943        3.04257779
 C           -0.91147571       -0.91508205        3.73374483
 C            0.50338111        0.94778049        3.77538414
 C           -0.88590457        0.53937556        3.72546873
 C            1.00132035        1.75981893        2.76114691
 C            3.04361820        0.47259507        2.62594466
 C            2.35125645        1.65423116        2.37972955
 C            2.99723486       -1.60953307        1.57829970
 C            3.55080928       -0.27394693        1.48812545
 C            2.28628372       -2.10683091        0.49443542
 C            0.37957946       -2.56309321        1.88501615
 C            1.11594855       -2.82491029        0.73313665
 C           -1.66173429       -1.55319925        2.75144684
 C           -0.99809108       -2.31485021        1.77639534
 C           -2.86461564       -0.94069294        2.42149154
 C           -1.76612242        1.18642517        2.86669089
 C           -2.94442399        0.50248186        2.58592102
 C            0.09062068        2.47672798        1.97402694
 C           -1.25051986        2.07427827        1.90901100
 C            0.55938973        3.38406983        1.02839620
 C            2.82854967        2.43186930        1.33299288
 C            1.97952468        3.45556580        0.76825596
 C            3.57945093        0.36073952        0.25144540
 C            3.50658252        1.75623297        0.23622891
 C            2.50721019       -1.56159268       -0.77242004
 C            3.22041317       -0.35560178       -0.89494910
 C            1.88480854       -2.15155702       -1.88247009
 C            0.47831662       -3.43533537       -0.33011448
 C            0.94791612       -3.16246861       -1.67570747
 C           -1.64817209       -2.64333119        0.57875572
 C           -0.97262242       -3.42826348       -0.35115083
 C           -3.52305811       -1.27086687        1.17376005
 C           -2.80555627       -1.95282208        0.19593948
 C           -3.83837518        1.01545863        1.57546561
 C           -4.32844216       -0.11858905        0.80919058
 C           -1.99363943        2.39033020        0.76040899
 C           -3.31724396        1.98470813        0.64056029
 C           -0.12578440        3.47300394       -0.24766589
 C           -1.32571559        2.80235494       -0.38924324
 C            2.17410250        3.45673884       -0.67290867
 C            3.17826692        2.45835762       -0.99492112
 C            0.86725884        3.35666577       -1.29929499
 C            3.28100156        0.29974819       -2.12118334
 C            3.02639328        1.72624616       -2.16170543
 C            1.88427196       -1.50341915       -3.11509136
 C            2.61853034       -0.26947966       -3.27376872
 C            0.62679061       -1.33535610       -3.82570666
 C           -0.20156768       -3.24568032       -2.56001521
 C           -1.38988316       -3.39245084       -1.73468698
 C           -0.43490733       -2.16481362       -3.50134234
 C           -3.09334929       -1.73359926       -1.16349833
 C           -2.33955682       -2.37951554       -2.13446055
 C           -1.71769283       -1.56480620       -3.16820659
 C           -4.37428595        0.28302883       -0.57823308
 C           -3.80588470        1.61872954       -0.67598496
 C           -3.69788652       -0.54257361       -1.55366609
 C           -1.60986688        2.17913243       -1.60295947
 C           -1.84541591       -0.17517618       -3.09356424
 C           -2.86834530        1.62331609       -1.78950964
 C           -2.96528958        0.33662047       -2.44781672
 C            0.67893108        2.42586368       -2.31939729
 C            1.80939719        1.89865594       -2.93868138
 C            1.68436980        0.72990004       -3.77850031
 C            0.39141632        0.09319629       -3.89776124
 C           -0.55670338        1.77023454       -2.42432100
 C           -0.70575912        0.62468779       -3.22655889
