   70
C70 / DATE: 7/ 1/2024 / Origin: Program Fullerene / C70 from database
 C            1.49798152        0.12302626        4.56476183
 C            0.71314683       -1.08870881        4.48453410
 C            1.26397837       -1.92681864        3.42879801
 C            2.60249866       -0.01955027        3.64009340
 C            2.43270102       -1.25640996        2.90140319
 C            2.66559834        1.20087863        2.86995399
 C            0.66138953        1.20982993        4.07783150
 C            1.37537714        1.85566955        3.00097734
 C           -0.67061911       -0.68301370        4.35925562
 C           -0.64819600        0.66219270        3.80214132
 C           -1.52819267       -1.59501207        3.77978925
 C            0.36544960       -2.53741881        2.56122713
 C           -0.92959527       -2.69812258        3.04420512
 C            0.57368500       -2.45106321        1.17227950
 C            2.63397964       -1.20573356        1.53007349
 C            1.73226614       -1.84162032        0.66788758
 C            3.18248526        1.12285382        1.59043604
 C            3.38841891       -0.14418619        1.03600219
 C            2.82539720        2.14012690        0.72247821
 C            0.70037233        2.19013778        1.82827882
 C            1.48378185        2.54682358        0.73041444
 C           -1.23676320        0.88689662        2.55474944
 C           -0.59400610        1.69741708        1.60142649
 C           -2.56063781       -1.08929847        2.90560368
 C           -2.30313055        0.06707894        2.16651858
 C           -1.95207673       -3.20743102        2.16511567
 C           -3.05738181       -2.25985688        2.22200493
 C           -0.43267087       -2.86023667        0.27835536
 C           -1.62865114       -3.38358474        0.76840566
 C           -0.36785896       -2.47530374       -1.06619716
 C            1.84474006       -1.61877993       -0.70924619
 C            0.70950597       -1.71476908       -1.51085989
 C            3.80051600       -0.21110072       -0.28805931
 C            2.97681926       -0.97849813       -1.20676066
 C            3.57903241        2.25334976       -0.43394743
 C            4.15844093        1.03062827       -0.95368477
 C            3.04922652        3.00357474       -1.54816319
 C            0.85836946        2.91066021       -0.46143677
 C            1.64617969        3.36149078       -1.52210271
 C           -1.17298396        1.85607938        0.33826044
 C           -0.47801065        2.53742946       -0.67828028
 C           -2.85685466        0.20804528        0.88949874
 C           -2.39893437        1.24390442        0.06837024
 C           -3.53720661       -2.09910088        0.87539473
 C           -2.85810728       -3.09291088        0.06191788
 C           -3.66338321       -0.81762332        0.35786512
 C           -1.48584265       -2.61816343       -1.89119308
 C           -2.79448619       -2.85889830       -1.29982210
 C           -1.66487823       -1.69459147       -3.00050171
 C            0.57838173       -0.91423620       -2.65536708
 C           -0.67785978       -0.74287392       -3.24535998
 C            2.87631960       -0.22980502       -2.44871418
 C            3.76498572        0.91750388       -2.34296766
 C            3.28520495        2.22117156       -2.75435295
 C            1.62985813       -0.09105703       -3.05638234
 C            1.16816728        3.19953364       -2.87303086
 C            2.07749828        2.28363932       -3.54441727
 C            1.32987653        1.06142505       -3.78093261
 C           -1.02826753        2.63507714       -1.96954098
 C           -1.05086890        0.52982708       -3.69810239
 C           -0.16182173        2.67819415       -3.05541523
 C           -0.05324701        1.47631483       -3.86602775
 C           -3.03208806        1.49812273       -1.13763760
 C           -2.25385084        2.03636113       -2.22897595
 C           -2.27602833        1.03936542       -3.28513975
 C           -4.07238497       -0.74978894       -0.96701663
 C           -3.69148322       -1.85092149       -1.83811187
 C           -3.06071407       -1.28586993       -3.01110744
 C           -3.89156533        0.47886279       -1.70386244
 C           -3.36098206        0.12886552       -3.01359082
