   70
C70 / DATE: 7/ 1/2024 / Origin: Program Fullerene / C70 from database
 C            1.08475561       -0.10575487        4.81174698
 C            2.34070401       -0.34025728        4.12449455
 C            2.24825972       -1.63961485        3.48013896
 C            0.23207451       -1.26119106        4.57296922
 C            0.86832171       -2.06828667        3.55118988
 C           -1.10771030       -0.77909874        4.33631923
 C            0.31259653        1.08238520        4.49343954
 C           -1.07321079        0.67613232        4.37130215
 C            0.82028820        2.02096511        3.60201754
 C            2.79315081        0.61240060        3.12519910
 C            2.10396705        1.80149093        2.94371862
 C            2.85123392       -1.52474277        2.16966126
 C            3.22313919       -0.13969904        1.95947001
 C            2.26568672       -2.18574782        1.10212149
 C            0.20447476       -2.34155700        2.35441963
 C            0.96393083       -2.68753560        1.23477877
 C           -1.77748182       -1.16370329        3.11014538
 C           -1.12911200       -1.95781053        2.16804504
 C           -1.85703763        1.15650654        3.24555022
 C           -2.49361650        0.00100699        2.64054591
 C           -0.06677690        2.65591134        2.63691749
 C           -1.34579576        2.14538098        2.40550189
 C            2.01882824        2.37002730        1.61079649
 C            0.74888224        3.06112050        1.50440806
 C            3.05345756        0.38655532        0.67802916
 C            2.48035600        1.65570700        0.50807587
 C            2.70707519       -1.84033516       -0.16880719
 C            3.06035978       -0.50526209       -0.39965659
 C            2.30417312       -2.65444534       -1.21891891
 C            0.30820561       -3.13930736        0.08861445
 C            1.09767671       -3.43132689       -1.02383763
 C           -1.65945879       -2.00353317        0.87926589
 C           -1.04260968       -2.80749672       -0.07524833
 C           -2.81485718        0.07569055        1.29621702
 C           -2.59135269       -1.03331684        0.47818845
 C           -1.90437113        2.28226589        1.13199504
 C           -2.83774424        1.33106364        0.70919342
 C            0.15407456        3.15334132        0.25641263
 C           -1.23189971        3.05013328        0.17800658
 C            2.04452308        2.04779509       -0.76056607
 C            0.92142393        2.87569647       -0.87605977
 C            3.02788685        0.01405969       -1.68902935
 C            2.51323565        1.35701157       -1.87500375
 C            2.28873861       -2.14431764       -2.57804980
 C            2.55210358       -0.80188232       -2.79356724
 C            0.49173430       -3.63849146       -2.32197229
 C            1.16208696       -2.75508271       -3.26394491
 C           -1.67985912       -2.98405814       -1.29921416
 C           -0.93046610       -3.43144085       -2.45765970
 C           -3.01892145       -0.97801496       -0.85607275
 C           -2.60231116       -1.96197008       -1.75120331
 C           -3.39854739        1.43651294       -0.55292090
 C           -3.44337246        0.24520271       -1.38374336
 C           -1.85627744        3.32676007       -1.03317081
 C           -3.03015254        2.55897825       -1.39403012
 C            0.37528600        3.12930780       -2.13216114
 C           -1.03657332        3.45719213       -2.22463763
 C            1.75284730        1.37287332       -3.11484741
 C            1.59483046       -0.00510552       -3.54403867
 C            0.67995369        2.23693669       -3.23575550
 C            0.15176716       -1.89527128       -3.85687476
 C           -1.13548568       -2.45562669       -3.51646667
 C           -2.17580110       -1.55240114       -3.08218275
 C            0.32017803       -0.51501790       -3.79648839
 C           -2.98674901        0.62347341       -2.71077704
 C           -2.84571236        2.06312603       -2.74806373
 C           -1.61763790        2.61894651       -3.26350619
 C           -0.58330192        1.71070057       -3.72067930
 C           -2.05268483       -0.19289371       -3.33911660
 C           -0.79537931        0.32893942       -3.70062319
