   70
C70 / DATE: 7/ 1/2024 / Origin: Program Fullerene / C70 from database
 C            0.94415502        0.11667633        5.59512215
 C            0.24998231       -1.08633312        5.16317075
 C            1.20376307       -1.93058766        4.49111347
 C            2.26539122        0.10599249        4.98983675
 C            2.43496899       -1.16756135        4.32440945
 C            2.40311626        1.31665108        4.20949667
 C            0.22400010        1.26348646        5.06478163
 C            1.15682654        2.06550918        4.31528057
 C           -0.92812519       -0.68112079        4.42950322
 C           -0.94825835        0.77218472        4.37608751
 C           -1.32260022       -1.37757653        3.28624562
 C            0.85012948       -2.46556519        3.18935351
 C           -0.41483153       -2.23247777        2.63369406
 C            2.77068959       -1.19710168        2.90870675
 C            2.01007681       -2.28751894        2.33945486
 C            2.73041806        1.22301925        2.79497289
 C            2.88882755       -0.01739128        2.17015716
 C            0.78494136        2.47686769        2.97374634
 C            1.93439241        2.23103471        2.12797789
 C           -1.36803641        1.36875808        3.18783378
 C           -0.48313428        2.18495427        2.45869166
 C           -2.32374285       -0.77379445        2.53895758
 C           -2.35525851        0.68070782        2.49736902
 C           -2.61909000       -1.25375519        1.20851393
 C           -0.56449186       -2.49913619        1.26074563
 C           -1.72825607       -2.10920133        0.58118457
 C            1.79480631       -2.29087416        0.97695824
 C            0.58803577       -2.80140597        0.52879798
 C            2.71524393       -0.08562019        0.78145312
 C            2.41532251       -1.31842341        0.19618876
 C            1.70539538        2.08480752        0.77505795
 C            2.37552439        1.07812488        0.09021916
 C           -0.65741838        2.33135234        1.07199343
 C            0.47907540        2.49769022        0.27358491
 C           -2.69263297        1.07144384        1.14854308
 C           -3.13557494       -0.12560255        0.46129487
 C           -1.86137345        1.95104919        0.46950753
 C           -3.02270179       -0.14538502       -0.91511450
 C           -1.78874543       -2.21353783       -0.81332324
 C           -2.58769021       -1.31587250       -1.53494775
 C            0.49165046       -3.06765628       -0.82399724
 C           -0.79103195       -2.92269012       -1.47246819
 C            2.22677904       -1.38340240       -1.18638550
 C            1.47544513       -2.44718532       -1.69095566
 C            2.18336987        1.01553164       -1.28627310
 C            2.32626636       -0.21097902       -1.93630449
 C            0.34403976        2.53645458       -1.10717188
 C            1.38005543        1.99632026       -1.86722175
 C           -1.97307160        2.00505174       -0.92335561
 C           -2.79549660        1.06681637       -1.55550512
 C           -0.93449993        2.58372232       -1.64875284
 C           -2.95220716        1.11202036       -2.93477728
 C           -2.58621460       -1.35587970       -2.92934596
 C           -2.94433669       -0.14742009       -3.65805039
 C           -0.53007096       -2.67356204       -2.88130906
 C            0.88649070       -2.35827128       -3.01539904
 C           -1.46652884       -1.96966844       -3.62257811
 C            2.11703051       -0.26885447       -3.31496924
 C            1.28981696       -1.33384615       -3.85887468
 C            1.32586203        2.09028138       -3.25037597
 C            1.78031499        0.95381874       -4.02596889
 C           -1.07113316        2.73812864       -3.02606490
 C           -2.16853432        2.06602697       -3.69476233
 C            0.10803450        2.58980260       -3.86190325
 C           -2.03551917       -0.01173132       -4.78426218
 C           -1.02297622       -1.04924295       -4.65857115
 C            0.33012059       -0.73339700       -4.77165273
 C            0.75022055        0.64027168       -5.00312650
 C           -1.63749390        1.38274388       -4.86456818
 C           -0.22950180        1.71232847       -4.97166976
