   70
C70 / DATE: 7/ 1/2024 / Origin: Program Fullerene / C70 from database
 C            1.34547038       -0.07921630        4.41678760
 C            2.60676541       -0.38939231        3.78930448
 C            2.54739585       -1.76249720        3.31384149
 C            0.48525178       -1.24793782        4.30476526
 C            1.22143644       -2.28139488        3.60139656
 C           -0.79579181       -0.80736692        3.77445782
 C            0.59616701        1.06113784        3.93193022
 C           -0.78689170        0.64220636        3.77837828
 C            1.14394044        1.92052469        2.97827808
 C            3.05040162        0.43757734        2.68623043
 C            2.36008681        1.60252610        2.34761067
 C            3.03112103       -1.78126802        1.94102120
 C            3.49397588       -0.44662723        1.61970266
 C            2.32642041       -2.49288107        0.97889025
 C            0.56959955       -3.01601001        2.62240181
 C            1.26099428       -3.30128644        1.37751553
 C           -1.35715388       -1.47308245        2.68837182
 C           -0.80515536       -2.68496203        2.27206230
 C           -2.20737172       -0.77201182        1.82796266
 C           -1.58216142        1.31748182        2.86399025
 C           -2.46190924        0.58620906        2.06771920
 C            0.27696024        2.84377328        2.39500136
 C           -1.15023175        2.56467288        2.41825117
 C            0.58500077        3.43710411        1.10563698
 C            2.69187633        2.19882979        1.13231693
 C            1.77288803        3.11595687        0.48180502
 C            3.40671730        0.00275373        0.30759831
 C            3.29940413        1.37639744        0.09796548
 C            2.44013466       -2.12108653       -0.36218279
 C            2.99823676       -0.87906904       -0.69842564
 C            1.74955261       -2.86273042       -1.32074925
 C            0.24016607       -3.66615757        0.41278617
 C           -1.02053988       -3.13652989        0.90648360
 C            0.52898184       -3.54725560       -0.93432160
 C           -2.59435060       -1.35919740        0.61683969
 C           -1.81842925       -2.37163353        0.06454729
 C           -3.55309331       -0.75039095       -0.17842732
 C           -3.31912186        1.28720845        1.22615610
 C           -4.00708474        0.57881990        0.16605679
 C           -1.73450019        3.14123821        1.21827100
 C           -0.63958429        3.46878529        0.32325314
 C           -2.87392469        2.56129141        0.68609450
 C           -0.65102280        2.97135841       -0.98073445
 C            1.76532937        2.80847600       -0.93780510
 C            2.85561965        1.88295610       -1.18874327
 C            0.55559949        2.63739551       -1.61091306
 C            2.93232660       -0.41493180       -2.01244931
 C            2.75276281        1.00663732       -2.25475053
 C            1.54050835       -2.32621046       -2.65448530
 C            2.14776044       -1.13103751       -3.00500182
 C           -0.51341956       -3.09069319       -1.83386680
 C           -1.62311348       -2.42036145       -1.32025552
 C            0.14933822       -2.56737767       -3.01283126
 C           -3.39823769       -0.81082559       -1.62109713
 C           -2.36932543       -1.58595525       -2.16045220
 C           -3.93023943        1.39755816       -1.03140020
 C           -3.00444466        2.47964717       -0.75711547
 C           -1.87364341        2.61951913       -1.56319933
 C           -3.65064984        0.52453602       -2.15277019
 C           -1.89707611        2.08366302       -2.84929586
 C           -2.82966552        1.00489019       -3.16123172
 C            0.54859850        1.94991051       -2.82650562
 C            1.63957650        1.15192901       -3.17526770
 C            1.41343390       -0.14777118       -3.78694200
 C           -0.64448785        1.79862499       -3.52227680
 C           -0.53054670       -1.65436896       -3.80469461
 C           -1.88620933       -1.28075698       -3.43527162
 C           -2.12764172        0.04069382       -3.98202555
 C            0.14759614       -0.45247526       -4.27031451
 C           -0.84037639        0.61046084       -4.33587858
