   70
C70 / DATE: 7/ 1/2024 / Origin: Program Fullerene / C70 from database
 C            1.53281702        0.07705192        4.59208356
 C            0.72767320       -1.12920352        4.59684004
 C            1.36898447       -2.09140993        3.72369928
 C            2.55508542       -0.07240850        3.56723794
 C            2.44789014       -1.40361305        3.02597211
 C            2.43858700        1.04193966        2.65578078
 C            0.67223919        1.17226472        4.19002620
 C            1.34427596        1.87183168        3.12174373
 C           -0.64387247       -0.75649386        4.31557268
 C           -0.64688025        0.64183839        3.91436635
 C           -1.42661695       -1.65138070        3.60904969
 C            0.57859764       -2.97755921        2.99711254
 C           -0.81686312       -2.86102292        3.06652684
 C            1.16210478       -3.57588740        1.88460873
 C            2.57427854       -1.59487179        1.65443969
 C            2.19479653       -2.84115384        1.16936692
 C            2.54336670        0.82464742        1.27903363
 C            2.58620115       -0.48831163        0.78292839
 C            2.10036677        1.85251379        0.43481156
 C            0.57606120        2.46558257        2.14261258
 C            1.23745141        2.80839999        0.97959658
 C           -1.27386601        1.02531813        2.72643270
 C           -0.77729645        2.12622931        2.02611982
 C           -2.33254545       -1.13996614        2.59843308
 C           -2.13536480        0.13948857        2.07580203
 C           -1.65512714       -3.29228109        1.95257627
 C           -2.63406552       -2.24284271        1.70463049
 C            0.33188228       -4.25279773        0.90690079
 C           -1.08988068       -3.97936124        0.88571769
 C            1.97211412       -3.02471647       -0.24676225
 C            0.86633899       -3.95359254       -0.40985764
 C            2.46324082       -0.69213559       -0.59576661
 C            2.02481910       -1.92590463       -1.08590860
 C            2.14563941        1.67370940       -0.95293053
 C            2.45307946        0.40484284       -1.46192452
 C            1.66112095        2.68916817       -1.79678737
 C            0.56985123        3.67955133        0.14528573
 C            0.94751857        3.74903571       -1.24376475
 C           -1.45332275        2.56704621        0.88726859
 C           -0.87839182        3.63314122        0.19740086
 C           -2.59792788        0.44037680        0.78939139
 C           -2.24643823        1.65146527        0.18291798
 C           -3.03091777       -1.95865001        0.40817702
 C           -3.14961770       -0.57005560        0.00064317
 C           -1.45568579       -3.62901867       -0.47917642
 C           -0.23838871       -3.56132169       -1.26988403
 C           -2.45699181       -2.69697713       -0.70782339
 C            1.23750124       -1.94914718       -2.22999650
 C           -0.04406743       -2.49165489       -2.14121089
 C            2.29141912        0.14340063       -2.82117805
 C            1.48879213       -1.00145632       -3.20188426
 C            1.64186444        2.51453394       -3.18042316
 C            1.95092603        1.21654491       -3.73016832
 C            0.52023169        3.02814617       -3.95345703
 C           -0.20980606        4.28302871       -1.94116123
 C           -1.36980101        3.98293734       -1.11775005
 C           -0.49343332        3.81401484       -3.27963874
 C           -2.41067705        1.78420482       -1.20557239
 C           -2.15793595        3.00301771       -1.82575199
 C           -1.70223588        3.00270300       -3.20846284
 C           -2.95207550       -0.52792236       -1.43457127
 C           -2.32443455       -1.77386732       -1.82306382
 C           -1.13726604       -1.71743142       -2.54950554
 C           -2.47460343        0.64051553       -1.99692381
 C            0.35860028       -0.47850534       -3.93256194
 C            0.79035087        0.78231374       -4.49970649
 C           -0.14829353        1.87990587       -4.53697396
 C           -1.41415080        1.72835226       -3.84628263
 C           -0.90076177       -0.59334756       -3.34746425
 C           -1.67646424        0.55720739       -3.13681218
