   70
C70 / DATE: 7/ 1/2024 / Origin: Program Fullerene / C70 from database
 C            1.32813740       -0.12181252        4.01257938
 C            2.46332227       -0.30917725        3.12526971
 C            2.41692319       -1.68423444        2.66282534
 C            0.48350994       -1.30209284        3.90278374
 C            1.08013918       -2.18550477        2.93045368
 C           -0.86909669       -0.86043747        3.67799664
 C            0.48838060        1.05171383        3.84375493
 C           -0.87409101        0.59328445        3.64357137
 C            0.96045421        2.10577039        3.08028405
 C            2.80569174        0.70714982        2.23435245
 C            2.24408396        1.97311188        2.41083253
 C            3.46684027        0.39114796        1.04021804
 C            3.01153970       -2.00223026        1.45621983
 C            3.60939128       -0.94362737        0.65941528
 C            2.31381763       -2.89215749        0.54468446
 C            0.30965642       -2.65995021        1.87006308
 C            0.96998547       -3.19766481        0.76377930
 C           -1.66761372       -1.53010233        2.76120537
 C           -1.06986611       -2.37841730        1.80562005
 C           -2.86529014       -0.89942564        2.45463200
 C           -1.70303898        1.22527768        2.71617203
 C           -2.86330117        0.55234527        2.35946639
 C            0.05639536        2.76425970        2.15185876
 C           -1.15653614        2.16113541        1.83040692
 C            2.24803298        2.92557240        1.31973346
 C            0.86749697        3.34325524        1.09931490
 C            3.65616247        1.37120101        0.06458332
 C            3.06930091        2.69040239        0.23056791
 C            3.52561802        0.99776197       -1.33676974
 C            3.43845175       -1.29577890       -0.74231090
 C            2.76802738       -2.58059490       -0.80167999
 C            3.10604922       -0.29174887       -1.64529258
 C            1.93241674       -2.85550473       -1.87118481
 C            0.23444075       -3.75191611       -0.27212686
 C            0.75098435       -3.66186437       -1.62838175
 C           -1.83106100       -2.87456894        0.72911683
 C           -1.19118143       -3.51420416       -0.32863314
 C           -3.68907325       -1.41861498        1.39418153
 C           -3.09147741       -2.34323675        0.46263093
 C           -3.55495999        0.91397584        1.14201341
 C           -4.20345191       -0.28767942        0.64063366
 C           -1.68455158        2.31044128        0.53711712
 C           -2.94471828        1.76979714        0.23364171
 C            0.36197589        3.39851487       -0.19333162
 C           -0.96359096        3.02890053       -0.43584848
 C            2.64144420        3.15437069       -1.07505989
 C            2.95851268        2.12098709       -2.04928877
 C            1.24823757        3.51397033       -1.26555084
 C            1.77387809        1.89889932       -2.84993340
 C            0.86372815        2.99402052       -2.56480188
 C            2.03448165       -0.48315987       -2.53083014
 C            1.55392711       -1.77064474       -2.76393582
 C            1.26464640        0.60685191       -2.95434252
 C           -0.31253060       -3.16101379       -2.47918573
 C           -1.52055760       -3.10453095       -1.68729587
 C            0.15123406       -1.94235136       -3.10440243
 C           -3.37173722       -1.86382513       -0.88190270
 C           -4.08747149       -0.60165234       -0.77219756
 C           -2.39324831       -2.03696822       -1.85843983
 C           -3.38054439        1.71065558       -1.08747012
 C           -3.77088421        0.42574149       -1.64493880
 C           -1.42028617        3.07942952       -1.75197021
 C           -0.48122147        2.81115626       -2.82281985
 C           -2.64711793        2.40831448       -2.11405562
 C           -0.09305013        0.43226796       -3.24119244
 C           -0.67703151       -0.82746202       -3.09497719
 C           -2.00283313       -0.94360681       -2.64520178
 C           -2.85408562        0.15543812       -2.73512334
 C           -0.90085801        1.55256432       -3.40875659
 C           -2.32095839        1.43807543       -3.15274688
