   70
C70 / DATE: 7/ 1/2024 / Origin: Program Fullerene / C70 from database
 C            1.33658627       -0.10876619        4.20671168
 C            2.45597695       -0.21154121        3.28477418
 C            2.47385347       -1.58376073        2.80801539
 C            0.46915266       -1.25354352        3.96873997
 C            1.15193702       -2.13198070        3.05889615
 C           -0.82146320       -0.74473905        3.57338461
 C            0.50147080        1.07447477        4.17828852
 C           -0.87647973        0.61732943        4.06442218
 C            0.91828220        2.17027086        3.43497524
 C            2.72064917        0.82467158        2.39252538
 C            2.01563819        2.02531987        2.48711101
 C            3.37275163        0.53136686        1.19855778
 C            3.07565469       -1.88880598        1.59080181
 C            3.64205956       -0.85385703        0.84077802
 C            2.62132678       -3.03228071        0.93678668
 C            0.45956642       -2.66169934        1.98162053
 C            1.22542808       -3.41145411        1.10833955
 C           -1.31433231       -1.03071926        2.29542353
 C           -0.66880851       -1.98033796        1.49060623
 C           -2.27404848       -0.17793587        1.74385818
 C           -1.82690380        1.45929882        3.51961333
 C           -2.70398749        0.91702306        2.50018497
 C           -0.07944044        3.03808494        2.83299277
 C           -1.42596983        2.78108460        3.06187176
 C            1.64607248        2.72443738        1.26550400
 C            0.36538315        3.36546848        1.48339759
 C            2.98047492        1.23532411       -0.01494813
 C            1.92051845        2.12935211        0.03987134
 C            3.66448024       -0.92105672       -0.61703912
 C            3.08405603        0.31113626       -1.12359238
 C            2.96993907       -3.25188159       -0.45131267
 C            3.36593897       -2.11455263       -1.25580637
 C            0.69464667       -3.75841183       -0.18489382
 C            1.82359437       -3.87339747       -1.09010358
 C           -1.06193515       -2.14014664        0.15121716
 C           -0.45916149       -3.13154052       -0.63862665
 C           -2.58761298       -0.25752295        0.37837293
 C           -2.02634435       -1.27991605       -0.40499494
 C           -3.37760551        0.74240962       -0.22011794
 C           -3.28558945        2.05749859        1.83655325
 C           -2.38920701        3.18418798        2.05603504
 C           -3.51819780        1.96997043        0.41786894
 C           -0.55682392        3.41023905        0.44495549
 C           -1.90410848        3.58986457        0.75046696
 C           -2.90113616        3.13670550       -0.19426713
 C            0.92928418        2.09668521       -0.94789918
 C           -0.20074944        2.91303140       -0.81228392
 C            2.06004086        0.24994564       -2.05988830
 C            1.03835558        1.20856861       -2.03375514
 C            2.51068957       -2.09271910       -2.43181911
 C            1.68896381       -3.29755114       -2.40874761
 C            1.93930828       -0.89046789       -2.85892849
 C           -0.71303826       -3.17531051       -2.00506267
 C            0.41237802       -3.21527256       -2.93744219
 C           -2.38769492       -1.40102611       -1.75598677
 C           -1.72626043       -2.31364739       -2.56925889
 C           -3.52451122        0.76215762       -1.59961907
 C           -3.02142740       -0.33605189       -2.38938032
 C           -2.54519266        3.04107712       -1.52747393
 C           -1.12410889        2.99043852       -1.84956796
 C           -3.18087719        1.99115648       -2.29548380
 C            0.10639484        1.24859601       -3.07709396
 C           -2.42581670        0.22539736       -3.59922696
 C           -0.96313226        2.13726888       -3.01245752
 C           -2.28034272        1.64465996       -3.37062880
 C            0.92720915       -0.95215319       -3.80945607
 C            0.17344466       -2.18726642       -3.92498040
 C           -1.22988005       -1.84869425       -3.85201834
 C           -0.01832548        0.14257803       -3.91937864
 C           -1.34099351       -0.43707123       -4.13998138
