   70
C70 / DATE: 7/ 1/2024 / Origin: Program Fullerene / C70 from database
 C            1.05406504       -0.06210586        4.96199543
 C            2.41503801       -0.36160346        4.58308051
 C            2.39089840       -1.63886540        3.87511993
 C            0.27470580       -1.25966144        4.70382109
 C            1.00557813       -2.01655113        3.70867214
 C           -1.05979167       -0.81875356        4.37796041
 C            0.36731742        1.02283455        4.28238863
 C           -1.02205974        0.63514419        4.26714425
 C            0.93286722        1.58607125        3.13322522
 C            3.10298973        0.58849382        3.73485292
 C            2.31904757        1.56035783        2.98552203
 C            3.20793227       -1.49484250        2.69353108
 C            3.84181446       -0.19017025        2.76658554
 C            2.71492939       -1.90544625        1.45777601
 C            0.48378135       -2.12932295        2.41770549
 C            1.35007990       -2.20874719        1.31439531
 C           -1.66642241       -1.30319047        3.15567856
 C           -0.89512507       -1.97504182        2.21060998
 C           -1.81808234        0.98721585        3.11660214
 C           -2.49458100       -0.21916803        2.68985099
 C            0.12361190        1.90247503        2.02742273
 C           -1.27209584        1.79036727        2.12147478
 C            0.71371661        2.17285546        0.78003829
 C            2.89611617        1.63740383        1.65575791
 C            3.90387919        0.58867224        1.54798971
 C            2.06418564        1.88580676        0.56626577
 C            3.41937914       -1.46768232        0.34457059
 C            3.96602365       -0.11596982        0.36056485
 C            2.87797269       -1.69658425       -0.97765213
 C            0.80743640       -2.40509143        0.03519255
 C            1.59373163       -2.20730580       -1.10981237
 C           -1.39923636       -2.05727409        0.91363308
 C           -0.57589857       -2.54364589       -0.09492512
 C           -2.91564365       -0.24523690        1.37592631
 C           -2.54816342       -1.32488125        0.57503841
 C           -2.03136218        1.91831618        0.96132509
 C           -3.04708231        0.98020581        0.75063949
 C           -0.09200177        2.49594558       -0.31728496
 C           -1.47576150        2.56505352       -0.13667677
 C            0.44774315        2.41155934       -1.60868230
 C            2.48948688        1.50993040       -0.70974797
 C            3.46678056        0.52411605       -0.83300622
 C            3.25185799       -0.54775891       -1.78030136
 C            1.66537738        1.76159708       -1.80373421
 C            2.49776336       -0.26680409       -2.90121698
 C            1.87534894        1.04016332       -2.98196019
 C            0.98240062       -2.12440073       -2.36239893
 C            1.47915541       -1.21849045       -3.30364664
 C           -1.12936231       -2.79181771       -1.34442909
 C           -0.29670134       -2.63978431       -2.52076388
 C           -3.00749284       -1.33864867       -0.74775097
 C           -2.43376401       -2.23065367       -1.64980062
 C           -3.73837835        0.99004465       -0.44591108
 C           -3.73367164       -0.23728374       -1.22502337
 C           -2.31004506        2.86442399       -1.21070763
 C           -3.53418474        2.10109559       -1.34996420
 C           -0.34680675        2.68371004       -2.72019488
 C           -1.74141567        3.01374689       -2.53227181
 C            0.80833638        0.93117071       -3.96108453
 C            0.56135529       -0.49112100       -4.16864502
 C           -0.25700879        1.81340751       -3.88040538
 C           -1.13586068       -2.15405310       -3.60466300
 C           -2.46981923       -1.93825787       -3.07275218
 C           -0.73738313       -0.95664117       -4.32226028
 C           -3.67298638        0.13765901       -2.63175210
 C           -3.59934986        1.58741802       -2.70625144
 C           -2.52193143        2.19994035       -3.45610003
 C           -1.59916443        1.34796596       -4.18454936
 C           -2.92421448       -0.63252120       -3.51079339
 C           -1.84985474       -0.01978943       -4.28523685
