   70
C70 / DATE: 7/ 1/2024 / Origin: Program Fullerene / C70 from database
 C            1.12444350       -0.03236836        5.22822097
 C            0.40718132       -1.23581812        4.83851766
 C            1.38397553       -2.20257249        4.39783362
 C            2.49008501       -0.16672583        4.75383756
 C            2.69361805       -1.56126306        4.43102058
 C            2.70209330        0.83613919        3.72121978
 C            0.52004554        1.08506438        4.52448512
 C            1.52918431        1.69984172        3.69190316
 C           -0.64039378       -0.84465963        3.91636160
 C           -0.67357781        0.60382062        3.87110239
 C           -0.82188768       -1.53356157        2.71558987
 C            1.22357708       -2.80007939        3.08625016
 C            0.14988552       -2.43979673        2.26799691
 C            3.36996500       -1.88633742        3.19344263
 C            2.54071473       -2.84972587        2.49169003
 C            3.32258409        0.49910203        2.51386210
 C            3.68291225       -0.82457438        2.24768697
 C            3.17754198        1.37515442        1.44150759
 C            1.13713762        2.23625424        2.46985327
 C            2.11028335        2.35910836        1.48954356
 C           -1.03619752        1.18051891        2.66540414
 C           -0.20345592        2.13581677        2.07414938
 C           -1.65410916       -0.94062866        1.76339543
 C           -1.85747048        0.43794104        1.82740803
 C           -1.84781741       -1.58272709        0.54485071
 C            0.25640272       -2.67902594        0.89447410
 C           -0.85066339       -2.44250276        0.08092396
 C            2.64761242       -2.56308156        1.07816957
 C            3.45854703       -1.37075048        0.91679414
 C            1.51477843       -2.66480093        0.29039558
 C            3.22697305        0.86216438        0.07979732
 C            3.15336220       -0.50940906       -0.13665197
 C            1.71106116        2.64628827        0.12809878
 C            2.43931750        1.75881677       -0.75579006
 C           -0.58899735        2.62493351        0.82404760
 C            0.37822443        2.88207807       -0.15369008
 C           -2.41130171        1.08761765        0.73187854
 C           -1.88166801        2.33412159        0.38997090
 C           -2.74381771       -1.02369601       -0.36931772
 C           -3.07051023        0.32813606       -0.23734064
 C           -2.92652605       -1.66781561       -1.59157549
 C           -0.71107785       -2.62355527       -1.29628439
 C           -1.85722593       -2.51681080       -2.07868063
 C            1.59697763       -2.14259836       -0.98742931
 C            2.34743885       -0.97734470       -1.17856454
 C            0.55329127       -2.41228875       -1.86000301
 C            1.77584347        1.24888605       -1.86953955
 C            1.96850640       -0.09360741       -2.19142210
 C           -0.01306156        2.83154804       -1.48798630
 C            0.62620648        1.90771149       -2.33251696
 C           -2.31839556        2.95208659       -0.77404933
 C           -1.30706597        3.24592244       -1.77000577
 C           -3.75344765        0.98934116       -1.25566689
 C           -3.46216305        2.39352319       -1.46437904
 C           -3.48288605       -0.94843200       -2.72688772
 C           -3.88601619        0.36820425       -2.56327445
 C           -1.74392004       -2.32324411       -3.51239472
 C           -2.70026685       -1.30241620       -3.90351757
 C            0.67086104       -1.90473087       -3.14784035
 C            1.31595260       -0.61669078       -3.29971366
 C           -0.45654428       -1.95531609       -4.05314290
 C           -0.01220738        1.43415735       -3.48986893
 C           -1.97974364       -0.25838212       -4.62090948
 C            0.40464592        0.22912272       -4.04609996
 C           -0.58124174       -0.64238340       -4.66555275
 C           -1.86742690        2.97973576       -3.07391732
 C           -3.26080264        2.61129890       -2.88513989
 C           -3.47448599        1.34508229       -3.55817508
 C           -1.24091331        1.96279525       -3.88852071
 C           -2.29394397        1.06738834       -4.35583442
