   70
C70 / DATE: 7/ 1/2024 / Origin: Program Fullerene / C70 from database
 C            1.33772029       -0.02233430        4.42200823
 C            2.60132722       -0.35738791        3.81390718
 C            2.53611247       -1.74033641        3.36928700
 C            0.48709458       -1.20014081        4.37055104
 C            1.24660883       -2.28057113        3.76386040
 C           -0.78232648       -0.81304336        3.77299660
 C            0.58905500        1.08779994        3.87032224
 C           -0.75337847        0.61945366        3.55930257
 C            1.19636730        1.98159335        2.98848003
 C            3.05070439        0.44313072        2.69530180
 C            2.44066542        1.66448609        2.40953226
 C            2.91317673       -1.78035046        1.96367147
 C            3.34640945       -0.45207095        1.58677712
 C            2.13479220       -2.51098582        1.07813991
 C            0.59284113       -3.13083139        2.88359887
 C            1.20581960       -3.41136895        1.59718406
 C           -1.34306020       -1.62546484        2.79924338
 C           -0.81285007       -2.90047952        2.60530999
 C           -2.11750232       -1.04703068        1.79343833
 C           -1.40546775        1.16893292        2.45829199
 C           -1.99181997        0.31965001        1.51027407
 C            0.34215497        2.87384053        2.34359634
 C           -1.02571774        2.45064867        2.08216417
 C            0.79735078        3.63832818        1.19905865
 C            2.80860425        2.25461800        1.20268476
 C            2.02960230        3.34162829        0.64305243
 C            3.11933158        0.00957957        0.29453084
 C            3.20433012        1.38161977        0.10750196
 C            2.00392511       -2.07227281       -0.24158761
 C            2.33422973       -0.75316207       -0.58155210
 C            1.29454337       -2.86040184       -1.14004898
 C            0.15555171       -3.93061677        0.73850105
 C           -1.11653906       -3.62103559        1.38073250
 C            0.28391924       -3.77579008       -0.63405177
 C           -2.75837309       -1.88371084        0.88910866
 C           -2.18339168       -3.18909921        0.60756181
 C           -3.25846581       -1.34306692       -0.35670295
 C           -2.37529282        0.81855395        0.25124836
 C           -3.09712032        0.01069235       -0.63501978
 C           -1.41139515        2.96497520        0.78694102
 C           -0.35190888        3.84913806        0.33203066
 C           -2.03252727        2.12402384       -0.12705953
 C           -0.16274192        4.00919294       -1.03311970
 C            2.16562518        3.27010419       -0.80220359
 C            2.72977549        1.96676806       -1.12334802
 C            1.15566257        3.77256590       -1.60959447
 C            1.80696585       -0.16985396       -1.75033230
 C            2.09906630        1.16282201       -2.06511669
 C            0.78735509       -2.27185958       -2.36295217
 C            0.98557208       -0.91766746       -2.60606123
 C           -0.90688919       -3.61000411       -1.44935011
 C           -2.12554163       -3.33811025       -0.83600564
 C           -2.99799598       -2.32535224       -1.40138749
 C           -0.51599859       -2.85900761       -2.63028205
 C           -2.77050393       -1.87752151       -2.69415464
 C           -1.46287982       -2.09946034       -3.30210882
 C           -3.30343755        0.43971642       -1.94350965
 C           -3.17985815       -0.52488655       -3.02262976
 C           -2.06075569        2.49875626       -1.47293071
 C           -1.14446520        3.44191020       -1.94161184
 C           -2.69464338        1.67486359       -2.39757123
 C            0.95858514        3.15582745       -2.90925337
 C            1.41702762        1.79060759       -3.10266250
 C           -0.46252915        3.18030725       -3.19277333
 C            0.17464196       -0.27475019       -3.54677150
 C           -1.04591362       -0.84754372       -3.90739938
 C           -2.21699183        0.00344416       -3.96834488
 C           -2.04391487        1.41058380       -3.67790834
 C            0.37019806        1.07795026       -3.80727527
 C           -0.79051553        1.95945706       -3.89751034
