   70
C70 / DATE: 7/ 1/2024 / Origin: Program Fullerene / C70 from database
 C            0.96512451        0.08091834        4.67377470
 C            2.24497994       -0.28581717        4.11143253
 C            2.23034464       -1.72466627        3.92480191
 C            0.14243335       -1.12255311        4.71718508
 C            0.84157701       -2.13698461        3.95913960
 C           -1.19215701       -0.75306581        4.30751420
 C            0.18310654        1.10189264        4.00908419
 C           -1.19571305        0.68721260        4.12534941
 C            0.60502442        1.62908469        2.78726444
 C            2.63993654        0.29928558        2.84668615
 C            1.79079766        1.18392521        2.18998060
 C            2.98705321       -2.01870106        2.72705302
 C            3.28145853       -0.74625634        2.07192884
 C            2.54652561       -3.06977499        1.93986982
 C            0.27772264       -2.66191578        2.79245271
 C            1.11818587       -3.37689014        1.94197135
 C           -1.72983930       -1.32960129        3.09047762
 C           -0.92055056       -2.13124366        2.28550025
 C           -2.07037767        0.97135060        3.01213342
 C           -2.52657307       -0.28957918        2.46370693
 C           -0.33664855        2.27937589        1.98493395
 C           -1.69239274        1.93894860        2.10037886
 C            0.09501808        2.88885045        0.80192858
 C            1.97297116        1.38877339        0.82563769
 C            1.25898331        2.40590612        0.19620102
 C            3.24321672       -0.67436022        0.67784060
 C            2.65816944        0.43503669        0.05906862
 C            2.99358333       -3.10478278        0.56619069
 C            3.37831415       -1.85077734       -0.05320773
 C            0.71452335       -3.61084323        0.56893740
 C            1.91841156       -3.66735764       -0.22810278
 C           -1.20419865       -2.19919364        0.91493568
 C           -0.37679771       -2.92599493        0.05364321
 C           -2.74174380       -0.34749578        1.09037125
 C           -2.27074845       -1.45707587        0.39308057
 C           -2.47463672        2.04337499        0.96413585
 C           -2.94390508        0.85165988        0.39238435
 C           -0.85664848        3.56777110        0.03802413
 C           -2.23520251        3.14138701        0.16010482
 C           -0.60937662        3.85223654       -1.36466165
 C            1.53072759        2.68581150       -1.13931417
 C            0.53967228        3.35622312       -1.96225372
 C            2.58576882        0.48465959       -1.33791840
 C            2.17337776        1.66697413       -1.94894621
 C            2.89038595       -1.89365298       -1.41668565
 C            1.91622727       -2.97414170       -1.49687738
 C            2.59345216       -0.70518817       -2.07422132
 C           -0.46577907       -2.72517155       -1.32823853
 C            0.70017099       -2.69617645       -2.10863271
 C           -2.59065000       -1.57336788       -0.95330143
 C           -1.65856116       -2.23434744       -1.84873764
 C           -3.24847042        0.79740507       -0.97454460
 C           -3.13895660       -0.41934832       -1.64735449
 C           -2.85374352        3.20592489       -1.14141899
 C           -1.88252343        3.77104794       -2.06273724
 C           -3.35115953        1.97535345       -1.71492595
 C           -1.96773278        3.02033698       -3.30030433
 C           -2.96123762        1.97250438       -3.11451260
 C            0.46421678        2.65198830       -3.23662316
 C            1.48434342        1.61643441       -3.22966725
 C           -0.76901810        2.40191615       -3.83436231
 C            1.77835340       -0.80878131       -3.19850329
 C            0.75887041       -1.84343261       -3.20509966
 C            1.21489674        0.38244135       -3.80250395
 C           -1.65975304       -1.51076272       -3.11002482
 C           -2.64697279       -0.44818050       -3.01742221
 C           -2.43576024        0.74906346       -3.69083395
 C           -1.11700644        1.04684872       -4.23131058
 C           -0.45539629       -1.27544271       -3.75527217
 C           -0.13769413        0.06100144       -4.23658317
