   70
C70 / DATE: 7/ 1/2024 / Origin: Program Fullerene / C70 from database
 C            1.08570412       -0.01729318        5.46863255
 C            0.43586289       -1.20614212        4.94192762
 C            1.46667353       -2.06374765        4.41324247
 C            2.45675243       -0.01078284        4.98141726
 C            2.69871677       -1.28601420        4.34512429
 C            2.64755303        1.19581249        4.20290571
 C            0.41385941        1.13996318        4.90601287
 C            1.41868098        1.96918661        4.28300654
 C           -0.62605871       -0.78213100        4.05053066
 C           -0.68289623        0.66692781        4.08109150
 C           -0.80507753       -1.41380964        2.81851778
 C            1.26840565       -2.64758100        3.10114912
 C            0.09237923       -2.40225343        2.38520179
 C            3.13798773       -1.31855023        2.95931229
 C            2.53201803       -2.51031678        2.40541591
 C            3.00575394        1.09326247        2.79314285
 C            3.14633633       -0.15095826        2.18606868
 C            1.14334951        2.46963624        2.95428633
 C            2.25786323        2.11824617        2.09846908
 C           -0.97556094        1.31930104        2.88680050
 C           -0.13014121        2.33189654        2.41628805
 C           -1.59069168       -0.76154174        1.86769023
 C           -1.73882888        0.62486149        1.94641878
 C           -1.85882240       -1.39897144        0.66246172
 C            0.07386930       -2.77891021        1.03867662
 C           -1.00374304       -2.41419477        0.23273849
 C            2.51723802       -2.64785369        1.03419739
 C            1.28252385       -3.08356076        0.41616813
 C            2.96468001       -0.25536188        0.80133933
 C            2.96911816       -1.52503563        0.23417213
 C            1.98143136        1.96032687        0.74598277
 C            2.43259288        0.82290055        0.07341318
 C           -0.27258515        2.69062591        1.08439068
 C            0.84744187        2.59659809        0.25264651
 C           -2.18027726        1.31822888        0.82022795
 C           -1.51515625        2.50408855        0.50594751
 C           -2.69173332       -0.77022096       -0.26365707
 C           -2.85265634        0.61638215       -0.18615489
 C           -3.00120828       -1.44995645       -1.44161996
 C           -0.94908147       -2.71249911       -1.12951957
 C           -2.09228249       -2.48907919       -1.88860617
 C            1.43099892       -2.78541240       -0.99190632
 C            2.40816744       -1.71781568       -1.08577070
 C            0.29189857       -2.66748559       -1.76896381
 C            2.03983970        0.65162288       -1.26516408
 C            2.07488008       -0.61840368       -1.85768151
 C            0.65101703        2.62381687       -1.12577213
 C            1.32764461        1.67986440       -1.90395139
 C           -1.70743454        3.08320215       -0.73577696
 C           -0.54160034        3.17820315       -1.59243499
 C           -3.36069966        1.32531340       -1.27437849
 C           -2.82098016        2.64017854       -1.54241660
 C           -3.45743127       -0.71886265       -2.61291021
 C           -3.54419046        0.66386352       -2.55399735
 C           -1.95674596       -2.36987608       -3.33087711
 C           -2.88959019       -1.35545356       -3.78847136
 C            0.40143107       -1.94308511       -2.95353609
 C            1.28744906       -0.85387776       -2.98345838
 C           -0.65011949       -2.03674399       -3.85960240
 C            1.01013103        1.54127399       -3.25678487
 C            1.06252833        0.21590379       -3.83842264
 C           -0.97160396        2.95054977       -2.95883317
 C           -2.40202959        2.68226690       -2.93187115
 C           -2.91258682        1.48866388       -3.58195721
 C           -0.15977311        2.21223382       -3.80498504
 C           -2.20378571       -0.53968962       -4.77463616
 C           -0.83328890       -1.01964025       -4.87508164
 C            0.04652949        0.12773802       -4.86861336
 C           -2.15526813        0.89869988       -4.58887739
 C           -0.77537810        1.32147249       -4.77832508
