   70
C70 / DATE: 7/ 1/2024 / Origin: Program Fullerene / C70 from database
 C            1.42115903        0.15083309        5.08812828
 C            0.67874323       -1.06111657        4.79151365
 C            1.59890316       -1.97643712        4.16455541
 C            2.62515399        0.12934145        4.27337630
 C            2.80389749       -1.22633214        3.82019571
 C            2.50038735        1.17955445        3.28073895
 C            0.62102474        1.27438008        4.64159277
 C            1.44185099        2.06131998        3.74473044
 C           -0.51648346       -0.68336857        4.06417958
 C           -0.63715768        0.76258953        4.12607014
 C           -0.84080252       -1.32102856        2.86936828
 C            1.18003472       -2.66271981        2.95737842
 C           -0.04692707       -2.35830755        2.35780963
 C            3.04503603       -1.45974213        2.41167378
 C            2.35639785       -2.69732387        2.11743895
 C            2.58365426        0.87561145        1.91473141
 C            2.94317702       -0.41208155        1.48829743
 C            2.07141760        1.79418200        0.99344229
 C            0.78396008        2.82662116        2.80198522
 C            1.32695374        2.87301416        1.46093537
 C           -1.21537566        1.42612120        3.04623307
 C           -0.64885391        2.62858913        2.63621848
 C           -1.74711515       -0.69603320        2.02627724
 C           -1.93555839        0.68805348        2.10719188
 C           -2.19860232       -1.37914518        0.90923890
 C           -0.24641165       -2.77929211        1.03284283
 C           -1.34425300       -2.30411758        0.30304050
 C            2.17869788       -3.01976041        0.79204154
 C            0.83329536       -3.32586437        0.34412134
 C            2.81540349       -0.75333170        0.13709736
 C            2.70672129       -2.10041098       -0.19442165
 C            1.98713984        1.46298322       -0.35961613
 C            2.39137555        0.19738875       -0.79355872
 C            1.30588230        2.31929762       -1.23520794
 C            0.26916095        3.40146622        0.62752352
 C           -0.98504635        3.14676335        1.32380233
 C            0.31374701        3.16731784       -0.73731471
 C           -2.55564835        1.35326704        1.04450985
 C           -2.03053757        2.57517605        0.60484767
 C           -3.25518592       -0.82717546        0.20128523
 C           -3.39881752        0.61685147        0.21250701
 C           -3.53979544       -1.30173262       -1.13306051
 C           -1.42703146       -2.54465759       -1.08189768
 C           -2.55777047       -2.13859448       -1.78916573
 C            0.87339319       -3.22336390       -1.09754228
 C            2.07009608       -2.46482706       -1.43834700
 C           -0.29267540       -2.94657495       -1.79610356
 C            2.19174109       -0.17740783       -2.13032797
 C            1.96869076       -1.52540801       -2.45027865
 C            1.35665607        2.07384474       -2.60375358
 C            1.91123378        0.81677799       -3.06738916
 C            0.18895490        2.37318172       -3.42245167
 C           -0.88588673        3.27842746       -1.43161140
 C           -2.11272958        2.91474893       -0.74361451
 C           -0.97130333        2.79885611       -2.79602136
 C           -3.63050616        1.04585035       -1.15657116
 C           -3.77544144       -0.14053664       -1.97743866
 C           -2.91790204        2.12276640       -1.65369779
 C           -2.18150194        1.99319059       -2.90627506
 C           -2.40821948       -1.63551018       -3.14377309
 C           -2.95123616       -0.28557165       -3.16380709
 C           -2.14781783        0.77393086       -3.58856585
 C           -0.13827363       -2.54098223       -3.12185617
 C            1.08866409       -1.84931893       -3.47735220
 C           -1.23214543       -1.89653955       -3.82737239
 C            1.23931182        0.47817309       -4.31102705
 C            0.08537967        1.35067418       -4.44246619
 C           -1.10432969        0.51619144       -4.47649665
 C            0.78294831       -0.87914707       -4.50263690
 C           -0.66290199       -0.85357503       -4.66590032
