   70
C70 / DATE: 7/ 1/2024 / Origin: Program Fullerene / C70 from database
 C            1.37896708       -0.07933821        4.56215361
 C            2.63240768       -0.25349962        3.85367265
 C            2.58110358       -1.53144429        3.16517381
 C            0.52205851       -1.20751780        4.24040566
 C            1.26906288       -2.11119613        3.38325167
 C           -0.74611378       -0.69050492        3.75412020
 C            0.61946477        1.13447880        4.33549219
 C           -0.70802374        0.75409651        3.86495194
 C            1.25327245        2.22316337        3.74991221
 C            3.03896452        0.75631469        2.89092733
 C            2.43156059        2.00476610        2.91510823
 C            3.01673093       -1.32616764        1.79471798
 C            3.24032000        0.09624761        1.61054376
 C            2.36835331       -2.02668108        0.78336285
 C            0.61734783       -2.66750753        2.29062164
 C            1.35826951       -2.92008461        1.13650074
 C           -1.30009801       -1.26978982        2.61936554
 C           -0.75741930       -2.46784466        2.16477594
 C           -2.05030718       -0.48729658        1.73610966
 C           -1.33893867        1.52536136        2.89312422
 C           -2.11873185        0.90072588        1.91397954
 C            0.43021399        3.21329838        3.08510907
 C           -0.91812372        2.84175489        2.69927752
 C            2.20668854        2.69459423        1.65804580
 C            1.12124276        3.62505340        1.87428949
 C            2.78303788        0.69238782        0.43777845
 C            2.24332250        1.97902948        0.46423000
 C            2.36601034       -1.49207383       -0.50473988
 C            2.54235889       -0.11198197       -0.67219856
 C            1.85534367       -2.26327798       -1.55289345
 C            0.76538437       -3.67976541        0.13705357
 C            1.03193666       -3.34637172       -1.25280782
 C           -1.43401670       -3.16423679        1.17549839
 C           -0.65147159       -3.96998226        0.25713552
 C           -2.60325934       -1.08547461        0.59377825
 C           -2.43469585       -2.45660580        0.39646931
 C           -3.10576808       -0.29802100       -0.44720201
 C           -2.73919236        1.68597525        0.94750077
 C           -3.19210338        1.07656924       -0.28818546
 C           -1.17439298        3.49261961        1.42890211
 C            0.12264826        3.76581375        0.83402737
 C           -2.17028872        2.98072327        0.61333496
 C            1.49619654        2.42403314       -0.63036977
 C            0.38238853        3.25475769       -0.43203328
 C            2.19712921        0.49041774       -1.87808265
 C            1.64891969        1.78001109       -1.85950673
 C            1.77862910       -1.71472877       -2.82954681
 C            2.10178014       -0.31408836       -3.00881379
 C            0.59904380       -1.98982330       -3.63616044
 C           -0.20396046       -3.51915404       -2.00264151
 C           -1.25123690       -3.86326608       -1.05946159
 C           -2.40458685       -2.99406607       -0.95520900
 C           -0.48092312       -2.63240028       -3.03838083
 C           -3.15743018       -0.80697705       -1.74236865
 C           -2.68826130       -2.15258259       -2.01657341
 C           -1.76122211       -2.07470729       -3.13969032
 C           -2.75371522        0.04168436       -2.85358178
 C           -1.95266338       -0.77079265       -3.76211427
 C           -2.79068108        1.94159184       -1.38911821
 C           -1.96536770        2.99541183       -0.82630331
 C           -0.68155448        3.18677824       -1.32994440
 C           -2.41975489        1.37404609       -2.60582136
 C            0.87839383        2.23578165       -2.92743601
 C           -0.42135519        2.80068056       -2.63623762
 C           -1.40095979        1.98409642       -3.33626199
 C            1.38662756        0.14970563       -4.18122986
 C            0.37541590       -0.84542620       -4.50087696
 C           -0.91771685       -0.19045846       -4.48058870
 C            0.73888299        1.43827071       -4.12928465
 C           -0.68514407        1.23489479       -4.35503685
