   70
C70 / DATE: 7/ 1/2024 / Origin: Program Fullerene / C70 from database
 C            1.25592637        0.03046924        4.93756469
 C            2.50308073       -0.17247975        4.23160000
 C            2.51387267       -1.53481312        3.72500394
 C            0.42984466       -1.14869826        4.73148359
 C            1.23090981       -2.14252129        4.03817155
 C           -0.82223638       -0.71717530        4.12887974
 C            0.45528269        1.19028388        4.60665786
 C           -0.87156126        0.72327982        4.23270180
 C            0.90400253        2.09468111        3.55955195
 C            2.84558492        0.70838464        3.12824526
 C            2.09889969        1.86078561        2.87279152
 C            2.95504825       -1.49617518        2.33655779
 C            3.26507916       -0.12119647        2.00701343
 C            2.29669093       -2.27315386        1.39591681
 C            0.61849856       -2.91724610        3.06482082
 C            1.33838211       -3.18517184        1.83479887
 C           -1.25158567       -1.33501099        2.95543119
 C           -0.74190971       -2.59396993        2.66299653
 C           -1.83552252       -0.57790437        1.92808015
 C           -1.28997175        1.47966942        3.07502664
 C           -0.27949876        2.48313112        2.80764565
 C           -1.84585415        0.81997376        1.99116462
 C           -0.12777181        2.93027278        1.49942352
 C            2.27079345        2.47517022        1.63716015
 C            1.15460848        3.19403731        1.04569851
 C            3.04107845        0.34608721        0.71583237
 C            2.89539118        1.71571690        0.56530900
 C            2.28176464       -1.86026907        0.06180042
 C            2.49867452       -0.51091238       -0.25405363
 C            1.70864415       -2.70700042       -0.87956423
 C            0.35055861       -3.67237313        0.89475133
 C           -0.93255550       -3.15035368        1.33819139
 C            0.64519640       -3.60542209       -0.45489491
 C           -2.20300138       -1.19681512        0.72377581
 C           -1.72549514       -2.47787489        0.41775334
 C           -2.79263373       -0.42866571       -0.28901338
 C           -1.97075191        1.53269310        0.80898293
 C           -1.10150213        2.60044427        0.55572591
 C           -2.68179802        0.96287856       -0.23743064
 C           -0.97129451        3.07538087       -0.75168217
 C            1.39083618        3.23834091       -0.38343156
 C            2.40792318        2.24315303       -0.68568271
 C            0.31360472        3.33413888       -1.25517655
 C            2.08115258        0.00648507       -1.49821739
 C            2.18284662        1.38279932       -1.75147242
 C            1.34790225       -2.19130429       -2.18577551
 C            1.46360178       -0.83110473       -2.44128834
 C           -0.45082563       -3.41759336       -1.38420271
 C           -1.64914329       -2.87591566       -0.91620413
 C            0.14046427       -2.88711983       -2.59789918
 C           -3.16388980       -1.05456951       -1.47781798
 C           -2.52436645       -2.30791044       -1.83096517
 C           -3.32603153       -0.27697445       -2.69678512
 C           -2.92053620        1.73778827       -1.36793236
 C           -2.03704947        2.86087230       -1.62720097
 C           -3.23607268        1.10514724       -2.63624240
 C           -1.82886733        2.94136041       -3.06167302
 C           -2.50431554        1.81166461       -3.67790482
 C            0.59709376        3.02982805       -2.58284103
 C            1.51150826        1.92945040       -2.84054234
 C           -0.47211672        2.96807180       -3.55380308
 C            0.74982865       -0.28756507       -3.51367017
 C           -1.53029979        1.08611973       -4.48175991
 C            0.87950664        1.06054250       -3.80736138
 C           -0.25975802        1.77737249       -4.36062855
 C           -0.69304097       -2.28709799       -3.52610298
 C           -2.11130680       -2.21768845       -3.22087532
 C           -2.62730248       -0.97449851       -3.76299825
 C           -0.30948694       -1.00039820       -4.07966568
 C           -1.53472787       -0.30153136       -4.44374910
