   70
C70 / DATE: 7/ 1/2024 / Origin: Program Fullerene / C70 from database
 C            1.36936474       -0.10293194        4.19370669
 C            2.56175367       -0.20291640        3.36917667
 C            2.43361995       -1.39463425        2.54469693
 C            0.54676356       -1.27076580        3.92731354
 C            1.14638923       -2.00204258        2.83819473
 C           -0.81666315       -0.82783824        3.77287544
 C            0.52384672        1.07710977        4.08728101
 C           -0.83024536        0.62523258        3.83488817
 C            0.99693047        2.19312289        3.41566978
 C            3.09399032        0.94954335        2.81204079
 C            2.37521443        2.20671041        2.95292853
 C            3.63084678        0.89903993        1.46555481
 C            2.87262935       -1.37576933        1.22258182
 C            3.64692873       -0.30041227        0.76080675
 C            2.25515690       -2.23491618        0.30585918
 C            0.34914655       -2.40835670        1.77511392
 C            0.97825041       -2.73614796        0.57908143
 C           -1.63020888       -1.43589660        2.82631209
 C           -1.04355240       -2.20244773        1.79926477
 C           -2.83054849       -0.78542693        2.57900856
 C           -1.64758132        1.31220955        2.93781170
 C           -2.81783765        0.66883275        2.55302255
 C            0.17161487        2.80182448        2.38298733
 C           -1.07768421        2.25635668        2.07460407
 C            2.40749423        2.88773692        1.67026048
 C            3.20054927        2.09532772        0.76003039
 C            1.04927596        3.19471587        1.29497315
 C            2.79492435        1.96012190       -0.56489525
 C            3.91956092       -0.20464723       -0.59995415
 C            3.43458193        0.97276399       -1.30600906
 C            2.79915306       -2.38163757       -0.96666400
 C            3.69565084       -1.35608864       -1.44703132
 C            1.94248612       -2.76448318       -2.07627148
 C            0.23789033       -3.34693920       -0.42072643
 C            0.67523216       -3.25878320       -1.80301919
 C           -1.82335832       -2.63384558        0.70764791
 C           -1.20268816       -3.20663635       -0.39944507
 C           -3.67924376       -1.24715248        1.50991374
 C           -3.10544913       -2.12269981        0.51712023
 C           -3.50432442        1.08675555        1.34901559
 C           -4.20125855       -0.07689875        0.82630847
 C           -1.58106953        2.41061100        0.77211981
 C           -2.86155969        1.93478196        0.45697029
 C            0.63194695        2.93786804        0.00070317
 C            1.50196386        2.36064104       -0.93895023
 C           -0.73217098        2.89799945       -0.23333578
 C            0.99977109        2.01149164       -2.20334215
 C            2.86671132        0.53510101       -2.56440659
 C            3.17854807       -0.87696093       -2.71690214
 C            2.12421286       -1.78283806       -3.13666461
 C            1.60998304        0.99113423       -2.94018342
 C            1.01236257       -1.24702477       -3.77303447
 C            0.84457732        0.19743820       -3.79450729
 C           -0.46250314       -2.82485728       -2.59958497
 C           -1.62406416       -2.78948923       -1.72937230
 C           -0.30057022       -1.83453583       -3.55520289
 C           -3.46767456       -1.60510693       -0.79485780
 C           -4.14766134       -0.33370909       -0.60117113
 C           -2.56859308       -1.77087070       -1.84828317
 C           -3.30747417        1.94593002       -0.86368586
 C           -3.84261881        0.72119835       -1.44264744
 C           -1.15631404        2.97273432       -1.54830226
 C           -0.27024575        2.46041274       -2.57660737
 C           -2.50805160        2.59194285       -1.88036227
 C           -0.56980651        0.46501278       -3.95490458
 C           -1.28344652       -0.76835914       -3.64706854
 C           -2.37286653       -0.73542900       -2.77414143
 C           -3.08794399        0.45546969       -2.65048874
 C           -1.07543405        1.66856507       -3.49514394
 C           -2.44861053        1.70375912       -3.02867718
