   70
C70 / DATE: 7/ 1/2024 / Origin: Program Fullerene / C70 from database
 C            1.27387482       -0.06136596        4.75264181
 C            2.46867840       -0.09741820        3.93344236
 C            2.51039942       -1.39786867        3.29224785
 C            0.43508626       -1.18440361        4.35704042
 C            1.19286655       -1.98651055        3.42095138
 C           -0.84481878       -0.65356515        3.92799453
 C            0.45055675        1.12592566        4.70588953
 C           -0.91149989        0.70145185        4.42042884
 C            0.76914999        2.16285426        3.74025963
 C            2.64184062        0.90213647        2.89111315
 C            1.68930808        1.90404079        2.72125723
 C            3.03745562       -1.21406609        1.94827878
 C            3.15887420        0.21575797        1.72395109
 C            2.51070308       -1.99049355        0.91541465
 C            0.58225698       -2.41718028        2.25505373
 C            1.40940926       -2.79699478        1.20738095
 C           -1.28504076       -0.92907917        2.63369447
 C           -0.71891688       -2.00025641        1.94820333
 C           -2.04664716        0.01164485        1.92650567
 C           -1.49193874        1.70500068        3.56155333
 C           -0.50188015        2.76105935        3.39761868
 C           -2.22213049        1.30831047        2.44588397
 C           -0.57516369        3.54131874        2.25708860
 C            1.47095737        2.43598664        1.44493555
 C            0.48762195        3.41241502        1.26923772
 C            2.85034360        0.69338981        0.46124950
 C            2.02652318        1.81505753        0.31768500
 C            2.67870198       -1.54117601       -0.39921756
 C            2.97041005       -0.18565423       -0.60759962
 C            2.19103411       -2.33141182       -1.44887591
 C            0.82586777       -3.52425056        0.18851320
 C            1.37181216       -3.41446814       -1.14759508
 C           -1.26686546       -2.40072837        0.73229280
 C           -0.61531343       -3.43556187        0.06310596
 C           -2.47510169       -0.29319100        0.62034337
 C           -2.07320333       -1.50186516        0.01593906
 C           -3.14972400        0.68005293       -0.13296034
 C           -2.64062923        2.32587360        1.60217921
 C           -1.82800988        3.52859513        1.52969699
 C           -3.06069387        2.00820805        0.26143689
 C           -0.10628614        3.59311641       -0.04778064
 C           -1.52603283        3.77284275        0.13402952
 C           -2.40876868        2.94220833       -0.64524001
 C            1.56323896        2.15926283       -0.95885439
 C            0.33042943        2.78793315       -1.09099841
 C            2.91706595        0.35323164       -1.88218909
 C            2.12176822        1.55009849       -2.07462637
 C            2.24091409       -1.86604810       -2.76210832
 C            2.70307657       -0.51932161       -3.01388354
 C            1.12571627       -2.12307046       -3.66447475
 C            0.30373656       -3.77819759       -2.06135595
 C           -0.94397289       -3.72764126       -1.31079672
 C            0.12504071       -3.00703633       -3.27773073
 C           -2.44478611       -1.78964859       -1.31078978
 C           -1.83686336       -2.83511162       -2.00359314
 C           -1.26521732       -2.58326942       -3.31860958
 C           -3.34118779        0.47464709       -1.49270914
 C           -3.10347483       -0.82822218       -2.06234867
 C           -1.95865978        2.43072269       -1.85167407
 C           -0.57125961        2.35003060       -2.07829491
 C           -2.77616070        1.45820511       -2.40264870
 C            1.28832188        1.34308751       -3.24439424
 C            1.74852514        0.12805863       -3.89850630
 C            0.77164897       -0.86492149       -4.30619159
 C           -0.07926210        1.59759960       -3.15921361
 C           -1.60855887       -1.41302240       -3.98069234
 C           -2.70299045       -0.62296054       -3.44680568
 C           -2.34925428        0.77753052       -3.59709540
 C           -0.56192985       -0.48668678       -4.39371434
 C           -0.95097195        0.84501282       -3.95096982
