   70
C70 / DATE: 7/ 1/2024 / Origin: Program Fullerene / C70 from database
 C            1.17113799        0.01805273        4.39128000
 C            2.48349022       -0.21907206        3.83257741
 C            2.56066398       -1.62783955        3.51114137
 C            0.35563616       -1.16080340        4.13494030
 C            1.20868551       -2.16122598        3.53965835
 C           -0.81568862       -0.73361578        3.40304354
 C            0.43211189        1.16028289        3.90627480
 C           -0.89604604        0.70686242        3.53607521
 C            1.05600913        2.06317176        3.05549494
 C            2.87080657        0.52215370        2.64431871
 C            2.09594832        1.60035366        2.23286311
 C            3.30680282       -1.75476072        2.27246052
 C            3.30420165       -0.44128456        1.64309794
 C            3.02008051       -2.85015675        1.47958510
 C            0.77499962       -2.85930800        2.41897162
 C            1.76657812       -3.54519991        1.72980983
 C           -1.08683338       -1.29902144        2.16568487
 C           -0.35526732       -2.40611204        1.70771854
 C           -1.89491325       -0.59425045        1.27898234
 C           -1.57090518        1.44031219        2.56508043
 C           -2.15736944        0.76889009        1.48995702
 C            0.24362653        3.07708297        2.56984286
 C           -1.16437725        2.75708203        2.37374620
 C            0.68588822        3.81419084        1.40635466
 C            2.08088145        1.91029857        0.87210367
 C            1.55890418        3.13193936        0.47660259
 C            2.85498375       -0.30574501        0.32349388
 C            2.23474528        0.88531114       -0.06520097
 C            3.07785577       -2.68773199        0.04488302
 C            2.78032148       -1.43451573       -0.50018864
 C            1.42191171       -4.24325851        0.51668493
 C            2.42065704       -3.86848035       -0.47315369
 C           -0.63908264       -2.92996567        0.43329762
 C            0.13032810       -3.97793911       -0.07219216
 C           -2.29918216       -1.21193958        0.10001281
 C           -1.52608391       -2.25265154       -0.41775990
 C           -3.22700207       -0.57609070       -0.71725118
 C           -2.80971516        1.50633370        0.49858472
 C           -3.55034639        0.81573441       -0.45857697
 C           -1.62724639        3.48119948        1.20638713
 C           -0.49632089        4.22816325        0.68029709
 C           -2.47403854        2.85505269        0.29754438
 C            0.97949236        3.26183280       -0.84748308
 C           -0.20180439        4.10694568       -0.73341530
 C            1.60851199        0.97479059       -1.31416352
 C            0.94308464        2.15225996       -1.68865905
 C            2.15583147       -1.34295720       -1.75231184
 C            1.64304734       -0.11597822       -2.18710545
 C            1.74324144       -3.77089565       -1.73871219
 C            0.33695015       -4.06519488       -1.49925210
 C            1.77362676       -2.50397468       -2.43464648
 C           -1.45577981       -2.43040949       -1.81063305
 C           -0.41916074       -3.17881125       -2.35370329
 C            0.54136149       -2.48527400       -3.19003614
 C           -3.11380038       -0.74580118       -2.15298689
 C           -2.03644885       -1.47339416       -2.63934827
 C           -3.85410929        1.44095625       -1.73296970
 C           -3.46440474        0.51635924       -2.78324994
 C           -2.51113692        3.39185807       -0.98915957
 C           -1.26728897        3.85784397       -1.58124993
 C           -3.25849952        2.72251673       -2.03264315
 C            0.03191056        2.13850913       -2.74940596
 C           -2.47943545        1.17691901       -3.62206026
 C           -1.04491890        3.02331667       -2.74257386
 C           -2.35328256        2.54508561       -3.15886710
 C            0.86660648       -0.08737770       -3.34627510
 C            0.14536787       -1.28487690       -3.74198889
 C           -1.26247899       -0.93899947       -3.67264948
 C           -0.02663495        1.03191054       -3.58468070
 C           -1.32668548        0.48134151       -3.95429771
