   70
C70 / DATE: 7/ 1/2024 / Origin: Program Fullerene / C70 from database
 C            1.36020291       -0.09479994        4.33173914
 C            2.57463563       -0.34835425        3.59321108
 C            2.53091609       -1.72402937        3.12177699
 C            0.51074964       -1.27131249        4.22406601
 C            1.23138526       -2.27450260        3.46123415
 C           -0.79732789       -0.83271074        3.75608830
 C            0.55854990        1.04954618        3.95830128
 C           -0.82251613        0.60934959        3.86509128
 C            1.02392960        1.95303798        3.00337394
 C            2.88359096        0.49781004        2.45472761
 C            2.03732559        1.55585662        2.11610515
 C            2.95760117       -1.72687503        1.73169880
 C            3.36683277       -0.37353616        1.40157756
 C            2.23692307       -2.45860137        0.78719712
 C            0.54268097       -2.99345553        2.49717499
 C            1.17375983       -3.25059069        1.21140084
 C           -1.35573661       -1.43681599        2.63536542
 C           -0.84881486       -2.66324316        2.22726068
 C           -2.11187286       -0.66631908        1.74399269
 C           -1.66679869        1.33813023        3.04312016
 C           -2.42419869        0.65965444        2.07936479
 C            0.12183885        2.93351444        2.60575785
 C           -1.29031683        2.65627848        2.80105223
 C            0.25027899        3.53405180        1.29406151
 C            2.02982431        2.00329280        0.78734645
 C            1.07263359        2.92496261        0.35910218
 C            3.23538590        0.04085288        0.08937540
 C            2.81180533        1.34387869       -0.16627955
 C            2.31302153       -2.08014479       -0.55700195
 C            3.03998331       -0.93037033       -0.88535811
 C            1.44743745       -2.65913922       -1.49821725
 C            0.10642123       -3.55666057        0.28219582
 C           -1.14704247       -3.14629229        0.90077515
 C            0.28416867       -3.30796600       -1.07210237
 C           -2.54098554       -1.21495536        0.51702093
 C           -2.08122132       -2.48453050        0.11825852
 C           -3.32817554       -0.44857439       -0.36248439
 C           -3.29209702        1.38245419        1.26857136
 C           -3.61680294        0.87137724       -0.04312111
 C           -2.03270062        3.45299797        1.85039351
 C           -1.07691768        3.96581304        0.88007435
 C           -3.10757957        2.81727250        1.12219311
 C           -3.24943154        1.89277088       -1.01365134
 C           -1.54803128        3.59114065       -0.44204744
 C           -2.89292395        3.08747878       -0.28911738
 C            0.68308891        2.93179392       -0.97923569
 C           -0.67407090        2.91934197       -1.29010150
 C            2.75921709        1.77492300       -1.49021915
 C            1.58384617        2.50033631       -1.93514241
 C            3.21444931       -0.56628757       -2.21244905
 C            3.11804945        0.84183828       -2.54649063
 C            1.58063746       -2.33619711       -2.84725353
 C            2.52509276       -1.30879819       -3.24425750
 C            0.38516136       -2.13402790       -3.64426464
 C           -0.86489395       -3.24463731       -1.85944222
 C           -2.11149171       -2.84353692       -1.22569098
 C           -0.81747475       -2.64219032       -3.18235394
 C           -3.31440639       -0.74517683       -1.72199336
 C           -2.84742789       -2.03413370       -2.16351485
 C           -2.01067640       -1.82787675       -3.33416949
 C           -2.47790200        1.50101849       -2.10140737
 C           -1.16018184        1.97305504       -2.20744217
 C           -2.78762164        0.25940506       -2.63219381
 C           -1.85732783       -0.39442307       -3.52574266
 C            1.06446469        1.81547854       -3.10269831
 C            2.13376298        0.97684727       -3.60777439
 C            1.81161414       -0.34944662       -4.07726532
 C            0.42364403       -0.75503274       -4.10042091
 C           -0.25062989        1.34509232       -3.07314669
 C           -0.57931371        0.12489265       -3.68599488
