   70
C70 / DATE: 7/ 1/2024 / Origin: Program Fullerene / C70 from database
 C            1.30248000       -0.05468423        4.66601632
 C            2.59010167       -0.24631735        4.02734474
 C            2.60860204       -1.59556240        3.49618238
 C            0.47765135       -1.21786886        4.36167823
 C            1.24397717       -2.09229383        3.50574971
 C           -0.79993369       -0.73779264        3.89031588
 C            0.52416647        1.12639862        4.34207311
 C           -0.84842281        0.68713851        4.15647594
 C            1.05557735        2.08909407        3.48769690
 C            2.99132283        0.65000910        2.95633618
 C            2.26687220        1.81034527        2.72425098
 C            3.30514825       -1.56069718        2.22665411
 C            3.40741555       -0.16551097        1.82531929
 C            2.91902638       -2.47669629        1.26627739
 C            0.69768052       -2.54142518        2.30480562
 C            1.58347180       -3.05602938        1.36230438
 C           -1.31541562       -1.20854219        2.68623202
 C           -0.55397151       -2.06903517        1.87609073
 C           -2.40789687       -0.53393047        2.14007865
 C           -1.71514734        1.46142768        3.40084824
 C           -2.64136985        0.78927348        2.50371729
 C            0.16301759        2.85284494        2.63114628
 C           -1.20559983        2.62959722        2.69586600
 C            2.03451336        2.23395257        1.35597321
 C            0.79398984        2.98612791        1.32671293
 C            3.04135692        0.19559410        0.52371434
 C            2.32196945        1.37297536        0.30209927
 C            3.09788645       -2.12108623       -0.12278173
 C            3.08884382       -0.77317467       -0.48499597
 C            1.12808669       -3.30611343        0.00663723
 C            2.26203539       -3.04266478       -0.86142740
 C           -1.02018860       -2.40502876        0.59627696
 C           -0.13195953       -2.86173170       -0.37820717
 C           -2.99862703       -1.01848310        0.98335859
 C           -2.30001444       -2.02758289        0.21186917
 C           -3.61452458       -0.08561447        0.04965690
 C           -3.01331013        1.74757427        1.48062495
 C           -1.99768555        2.78768649        1.48971856
 C           -3.47508311        1.29157936        0.24986610
 C            0.00857863        2.94127479        0.17840627
 C           -1.37422048        3.10849981        0.28891732
 C            1.66636309        1.55228592       -0.91206872
 C            0.54490879        2.38959727       -0.98919419
 C            2.69443093       -0.44305552       -1.78576373
 C            2.03827379        0.77489763       -2.00366925
 C            2.01489730       -2.75171271       -2.18623148
 C            2.52248631       -1.49405716       -2.69113965
 C           -0.38037981       -2.60731645       -1.73361554
 C            0.64515626       -2.81503851       -2.65283889
 C           -2.57281008       -1.78715418       -1.19495521
 C           -3.48487001       -0.65954167       -1.28425915
 C           -1.53798203       -1.91825266       -2.11705159
 C           -3.42486344        0.17280385       -2.39013961
 C           -3.29857003        2.13039259       -0.84768966
 C           -2.14967497        3.02535728       -0.85922816
 C           -3.46645125        1.60708424       -2.18913464
 C           -0.15630415        2.51793625       -2.19109263
 C           -1.49911977        2.88220648       -2.14658178
 C           -2.43787538        2.20617047       -3.02212633
 C            1.53801653        1.09982453       -3.26155101
 C            0.33853985        1.91383663       -3.34758876
 C            1.83153763       -1.27108560       -3.94394752
 C            0.62676600       -2.09430680       -3.90732767
 C            1.43482656        0.07536570       -4.28097466
 C           -1.57394090       -1.18105878       -3.31228924
 C           -2.44709306       -0.09754176       -3.43001421
 C           -1.92616166        1.18010034       -3.90292944
 C           -0.58817119        1.24518395       -4.25881619
 C           -0.49788941       -1.23384394       -4.19617028
 C            0.04555336        0.01739518       -4.69149074
