   70
C70 / DATE: 7/ 1/2024 / Origin: Program Fullerene / C70 from database
 C            1.55620958       -0.06084702        4.81791138
 C            0.74427379       -1.24079595        4.60751988
 C            1.29223681       -1.98574589        3.48229846
 C            2.65207477       -0.11698113        3.87384391
 C            2.45198347       -1.26540924        3.00203974
 C            2.74758017        1.18863199        3.25618894
 C            0.74285839        1.09233274        4.46687378
 C            1.46032114        1.84135559        3.45061806
 C           -0.63360993       -0.80095041        4.51546925
 C           -0.58976404        0.60940818        4.15706185
 C           -1.50119891       -1.61867551        3.81607326
 C            0.39358253       -2.52996294        2.57283267
 C           -0.91704550       -2.68141184        3.01759174
 C            0.64179241       -2.41512448        1.19397266
 C            2.63484549       -1.08740744        1.63560684
 C            1.72958436       -1.65735744        0.73105913
 C            3.30812061        1.24406662        1.99529983
 C            3.39531808        0.00615209        1.23266961
 C            2.80691290        2.23542779        1.06913308
 C            0.76343244        2.30357326        2.33248994
 C            1.48413313        2.65741245        1.18573334
 C           -1.19242893        1.02896812        2.97181711
 C           -0.61136697        2.06523225        2.23739123
 C           -2.48275492       -0.99853930        2.95017053
 C           -2.18546734        0.23635559        2.38484798
 C           -1.93555917       -3.09307815        2.08628430
 C           -2.96545973       -2.05885518        2.09489968
 C           -0.28627208       -2.92981319        0.27393976
 C           -1.56245200       -3.29736497        0.70769102
 C           -0.09927785       -2.72806752       -1.09713004
 C            1.86189094       -1.39580806       -0.63985097
 C            1.03323626       -2.05025916       -1.55437459
 C            3.42214797        0.37820929       -0.16512372
 C            3.29628718        1.82477237       -0.22696398
 C            2.72207634       -0.38377249       -1.08815804
 C            2.70960848        2.37669748       -1.34911996
 C            0.80668077        3.09333748        0.04156788
 C            1.46744963        3.11789433       -1.18731123
 C           -1.31422518        2.59201921        1.16403227
 C           -0.57967622        3.18497266        0.06227436
 C           -2.66153252        0.55271730        1.10661902
 C           -2.41294450        1.82300827        0.60632181
 C           -3.26575117       -1.75648484        0.71109205
 C           -2.70600828       -2.85041193       -0.05747096
 C           -3.09531838       -0.45651982        0.23465417
 C           -1.20078589       -2.87619223       -1.94541092
 C           -2.52758961       -2.65741484       -1.40839452
 C           -1.19628399       -2.24405098       -3.24978424
 C            1.17621977       -1.78543873       -2.92010774
 C            0.01920604       -1.87123628       -3.79697691
 C            2.54762583        0.14871460       -2.36280067
 C            2.54473505        1.53541437       -2.51854603
 C            1.96051447       -0.63914270       -3.33949189
 C            0.70674902        2.96672950       -2.42307291
 C            1.51719386        2.16047541       -3.32935172
 C           -1.33816236        2.94480123       -1.15560674
 C           -2.43302537        2.04514371       -0.82611967
 C           -0.67609016        2.78552861       -2.36937880
 C           -3.01440943       -0.27058645       -1.15245589
 C           -2.96321512       -1.39786680       -1.97540239
 C           -2.32195037       -1.31057605       -3.27139798
 C           -2.72200236        0.99118062       -1.68424226
 C           -1.31766391        2.07683668       -3.38267535
 C           -2.17448393       -0.06202954       -3.85255879
 C           -2.35443499        1.11989546       -3.02525208
 C            0.06233332       -0.75139405       -4.72050932
 C            1.26741611        0.00712462       -4.44330469
 C            0.90148179        1.40840941       -4.31731296
 C           -1.05296784        0.17625435       -4.74308719
 C           -0.53693401        1.50651894       -4.46714540
