   70
C70 / DATE: 7/ 1/2024 / Origin: Program Fullerene / C70 from database
 C            1.49015905        0.03985147        4.67056835
 C            0.67476593       -1.13686513        4.47007144
 C            1.30160025       -1.94920068        3.44020098
 C            2.58684470       -0.02817086        3.72217826
 C            2.36308016       -1.15533661        2.84634384
 C            2.68443979        1.26774898        3.11142128
 C            0.67778307        1.19118342        4.31082919
 C            1.46729820        2.00181310        3.42212312
 C           -0.68480057       -0.68814633        4.23778528
 C           -0.59080416        0.70245134        3.82246516
 C           -1.50023227       -1.52990359        3.50696290
 C            0.46687503       -2.66324898        2.59687982
 C           -0.88922321       -2.70539400        2.91503002
 C            0.83305149       -2.79687288        1.25853152
 C            2.36259705       -0.94234385        1.46527764
 C            1.58782485       -1.78054163        0.65694483
 C            3.11708886        1.35150184        1.80074827
 C            2.87116670        0.25816850        0.94281456
 C            2.99684581        2.62056699        1.26672994
 C            0.84422751        2.64610583        2.35877125
 C            1.71963494        3.28016753        1.48634390
 C           -1.00569613        1.06233621        2.53637765
 C           -0.33378518        2.08204062        1.83249353
 C           -2.31737633       -0.95744698        2.45614648
 C           -1.92395313        0.24045442        1.87085129
 C           -1.81638230       -3.18166806        1.91375291
 C           -2.70240912       -2.06266319        1.60100632
 C            0.07611348       -3.64971530        0.46302864
 C           -1.30074968       -3.91893203        0.86113668
 C            0.08533560       -3.46471931       -0.97434917
 C            1.38835821       -1.46123978       -0.69348523
 C            0.57575457       -2.26927081       -1.49465151
 C            2.82166868        0.47275727       -0.44485035
 C            1.97167240       -0.31512129       -1.23723900
 C            3.36964122        2.81937182       -0.10536335
 C            3.35364908        1.65664874       -0.95916105
 C            1.24901132        3.72484006        0.19718743
 C            2.41996115        3.76503748       -0.65858143
 C           -0.70702108        2.34996458        0.50485390
 C            0.06577623        3.19710558       -0.30411743
 C           -2.20126509        0.46252581        0.52465626
 C           -1.77694572        1.65226272       -0.05564150
 C           -3.01981339       -1.81720744        0.26946239
 C           -2.82475079       -0.52923521       -0.25509708
 C           -2.09203256       -3.98866643       -0.34627359
 C           -1.16955731       -3.99799812       -1.46431314
 C           -3.03465577       -2.91452220       -0.59017113
 C           -1.82886405       -3.31341218       -2.55033032
 C           -3.04260781       -2.70189321       -2.01683953
 C            0.08805671       -1.77593329       -2.71242360
 C           -1.11325655       -2.26001154       -3.23563927
 C            1.61742154        0.07989661       -2.53780722
 C            0.53803348       -0.53887595       -3.16798677
 C            2.92711576        2.13230271       -2.25491278
 C            2.26060512        3.41549050       -2.04826016
 C            2.02717526        1.31343589       -3.03325809
 C           -0.16795596        3.25013007       -1.68407490
 C            0.91793772        3.26503762       -2.56521003
 C            1.01661377        2.21324066       -3.55483621
 C           -2.23906133        2.00099688       -1.31360879
 C           -1.38729091        2.79994483       -2.17683405
 C           -3.10238861       -0.28227974       -1.60815233
 C           -3.08265137       -1.34405420       -2.51292158
 C           -2.13046338       -1.30100791       -3.60681110
 C           -2.89902528        0.99445570       -2.12656944
 C           -0.28795788        0.21768966       -4.00972702
 C           -0.15930416        1.66299108       -4.02560355
 C           -1.40561907        2.18985365       -3.49549387
 C           -1.71206633       -0.06126279       -4.04485393
 C           -2.36521821        1.10279128       -3.47452554
