   70
C70 / DATE: 7/ 1/2024 / Origin: Program Fullerene / C70 from database
 C            1.19255703        0.08378293        4.27029602
 C            2.50861354       -0.31504983        3.83433677
 C            2.46170189       -1.74224219        3.54548825
 C            0.36655618       -1.11181195        4.29501766
 C            1.06260592       -2.13073922        3.54398308
 C           -0.94759870       -0.72647086        3.84734696
 C            0.47503701        1.07391764        3.49272119
 C           -0.92080129        0.69499601        3.54454089
 C            0.99250777        1.51523053        2.28032498
 C            3.07631076        0.32848313        2.66921914
 C            2.30400291        1.20270345        1.89673491
 C            3.25504330       -1.96724490        2.35147058
 C            3.85763258       -0.69006509        1.99835066
 C            2.73443719       -2.77220096        1.34613938
 C            0.48625839       -2.61848887        2.36926785
 C            1.31859437       -3.11859343        1.36449421
 C           -1.61984040       -1.54598840        2.95675354
 C           -0.86075214       -2.33931132        2.07528947
 C           -2.83990311       -1.04876926        2.52476227
 C           -1.78692215        1.15012703        2.55358147
 C           -2.93239295        0.39143655        2.33296021
 C            0.11790970        2.04576248        1.34056509
 C           -1.26949866        1.89053817        1.48610973
 C            0.63752416        2.62563299        0.19105754
 C            2.72879333        1.48959254        0.59211286
 C            1.89180463        2.21105449       -0.27708398
 C            4.22942738       -0.45494085        0.68668302
 C            3.83887804        0.80674457        0.08610726
 C            3.11614643       -2.52050882       -0.03431197
 C            3.99521996       -1.48316771       -0.31732955
 C            0.84888275       -3.13165422       -0.00909584
 C            1.93560673       -2.70591237       -0.86860154
 C           -1.33430355       -2.58917194        0.77623681
 C           -0.43102030       -2.68362746       -0.27357337
 C           -3.49970509       -1.68622556        1.41233898
 C           -2.67531492       -2.40359947        0.47051631
 C           -3.73185586        0.63157385        1.14784156
 C           -4.21461767       -0.65677098        0.68335175
 C           -2.11735464        2.26966166        0.43926402
 C           -3.29720860        1.55475576        0.20273431
 C           -0.20617507        3.37759280       -0.61628936
 C           -1.63893699        3.15115322       -0.52677608
 C            0.13164083        3.53660082       -2.01006402
 C            2.17715996        2.24869420       -1.65602426
 C            1.22041834        2.74556634       -2.53068150
 C            3.96502281        0.62203195       -1.33884368
 C            3.88508405       -0.80764582       -1.59642257
 C            2.99928940        1.26790839       -2.18956986
 C            1.67329199       -1.82398481       -1.91664509
 C            2.70209050       -1.02922823       -2.41004348
 C            2.37243538        0.24711889       -3.01111037
 C           -0.70047517       -2.02730548       -1.47453693
 C            0.35219743       -1.49035918       -2.22821744
 C           -3.03285877       -1.94792286       -0.86543934
 C           -4.09639364       -0.95749439       -0.72778643
 C           -2.02664683       -1.75082245       -1.81632077
 C           -3.78350495        1.43182580       -1.10057862
 C           -4.12020460        0.10831686       -1.61246471
 C           -2.17000269        3.09796524       -1.88098276
 C           -1.05186480        3.23874868       -2.79791642
 C           -3.16760318        2.18140609       -2.17977168
 C            0.67075883        1.81603943       -3.50504355
 C            1.06904591        0.48231315       -3.42995545
 C            0.09986558       -0.49124162       -3.17586638
 C           -0.72948205        2.14091103       -3.69766921
 C           -2.29670340       -0.95481132       -2.92617275
 C           -3.42932187       -0.04814166       -2.87452462
 C           -2.97183910        1.26376323       -3.29215988
 C           -1.20778120       -0.25925900       -3.58852664
 C           -1.64146864        1.10682258       -3.85159863
