   70
C70 / DATE: 7/ 1/2024 / Origin: Program Fullerene / C70 from database
 C            1.09442200       -0.10552435        4.98116592
 C            2.42108071       -0.46457675        4.52032835
 C            2.40422384       -1.87923123        4.18741426
 C            0.24133083       -1.27568950        4.82848471
 C            1.02175315       -2.32538345        4.21715563
 C           -0.96123786       -0.85129553        4.15052991
 C            0.41526632        1.02589574        4.36628484
 C           -0.92244497        0.59388412        4.01227893
 C            1.10442774        1.85108275        3.49125430
 C            2.98696079        0.25482504        3.39311682
 C            2.43005087        1.46934844        3.01234740
 C            2.87793673       -2.01599837        2.82380730
 C            3.31898302       -0.71428455        2.36050127
 C            0.65780807       -2.76483435        2.87853243
 C            1.85050386       -2.69067461        2.05484166
 C           -1.44979512       -1.58733126        3.07592652
 C           -0.56073676       -2.36695782        2.31892139
 C           -2.54761073       -1.03563113        2.43601901
 C           -1.58176807        1.15043270        2.91615097
 C           -2.65177134        0.41679820        2.42071124
 C            0.38640931        2.45073726        2.37802839
 C           -0.88679758        1.99847101        2.03976721
 C            2.51600444        1.86943392        1.62039913
 C            1.34996757        2.67875845        1.32288567
 C            3.08398999       -0.38835435        1.02753199
 C            2.94104489        0.95168166        0.66223497
 C            1.69561174       -2.32738644        0.72656606
 C            2.55081361       -1.36797188        0.18741492
 C           -0.69508105       -2.40977685        0.92104524
 C            0.45269746       -2.50453272        0.12898349
 C           -2.90004416       -1.49295544        1.11163068
 C           -1.91893104       -2.08768244        0.32858857
 C           -3.25236567        0.79242465        1.16184988
 C           -3.71195572       -0.43881529        0.53917075
 C           -1.34038231        2.17476311        0.72199920
 C           -2.62761160        1.75173639        0.37480958
 C            0.91570372        2.70559729        0.00972246
 C           -0.45037904        2.62329086       -0.27082643
 C            2.67468747        1.23862972       -0.67604022
 C            1.81670661        2.30316441       -0.96542719
 C            2.42655376       -1.07963903       -1.16534824
 C            2.77462139        0.19732082       -1.59501155
 C            0.36527820       -2.30278153       -1.24549839
 C            1.49066088       -1.79992380       -1.90286580
 C           -2.01597169       -1.98830873       -1.06282299
 C           -0.88960125       -2.22498626       -1.85132641
 C           -3.91575597       -0.44043414       -0.82702229
 C           -3.13504005       -1.36659673       -1.62879555
 C           -3.07829640        1.90431892       -0.93105209
 C           -3.87991466        0.83835998       -1.51079953
 C           -0.86368109        2.71336298       -1.60792971
 C           -2.16612007        2.37481066       -1.95302398
 C            1.49626680        2.57106671       -2.28608082
 C            0.09466299        2.74697081       -2.62315593
 C            2.69001842        0.49606100       -2.95129680
 C            2.11269535        1.77086289       -3.32814103
 C            1.48363245       -1.65923526       -3.28379788
 C            2.15947139       -0.51001940       -3.85642788
 C           -0.97669074       -2.04976689       -3.23169212
 C            0.23774054       -1.83755673       -3.99870983
 C           -3.05146479       -0.80156608       -2.96637395
 C           -3.40965162        0.60002462       -2.86198493
 C           -2.39960098        1.59631879       -3.16400759
 C           -1.97253110       -1.13859284       -3.76369393
 C           -0.15872382        2.01509730       -3.85566806
 C            1.11572155        1.52825856       -4.35637596
 C            1.23347415        0.14578266       -4.76678053
 C            0.03276405       -0.66014865       -4.83129553
 C           -1.30945309        1.23292014       -3.94895577
 C           -1.24053632       -0.07804819       -4.44017218
