   70
C70 / DATE: 7/ 1/2024 / Origin: Program Fullerene / C70 from database
 C            1.53590168        0.23513388        5.04704448
 C            0.75706210       -0.96450624        4.81455428
 C            1.64292032       -1.92179298        4.19215642
 C            2.72034615        0.15564764        4.20376072
 C            2.81126620       -1.19738423        3.71008840
 C            2.64206137        1.23984773        3.24444899
 C            0.75169069        1.36081677        4.58102750
 C            1.60905749        2.14529985        3.71884046
 C           -0.45843417       -0.58983087        4.10448518
 C           -0.49148052        0.85896157        4.01639227
 C           -0.85934990       -1.33981756        3.00180205
 C            1.12807015       -2.67823678        3.07463433
 C           -0.21158658       -2.55218491        2.72949833
 C            2.88819637       -1.41296580        2.27680766
 C            2.09795478       -2.59209192        1.99836782
 C            2.72995926        0.98010824        1.87080168
 C            2.79216024       -0.33932279        1.39819026
 C            2.35744211        1.99811900        0.98640039
 C            0.98868453        2.94204928        2.77866041
 C            1.61811894        3.07209847        1.48364612
 C           -0.96710527        1.46256588        2.85344022
 C           -0.41659013        2.69017337        2.49262920
 C           -1.60284466       -0.71404274        1.99235546
 C           -1.57370350        0.67883248        1.86500526
 C           -2.15494563       -1.49117472        0.97176123
 C           -0.59584324       -3.25394170        1.60105175
 C           -1.77039980       -2.82387374        0.87857538
 C            1.62126234       -2.79625238        0.70752088
 C            0.42959929       -3.50052244        0.59900731
 C            2.44318574       -0.60268797        0.07623109
 C            1.91204700       -1.85239932       -0.28212089
 C            2.34338050        1.75304142       -0.39102815
 C            2.45895934        0.43838381       -0.84598953
 C            1.82184869        2.73379482       -1.23887914
 C            0.61074294        3.67603614        0.64044007
 C           -0.66553634        3.21845843        1.16559912
 C            0.80234637        3.63243269       -0.72691328
 C           -1.98797171        1.26972885        0.66624622
 C           -1.52252494        2.54168267        0.31007271
 C           -2.74417419       -0.87832465       -0.13914956
 C           -2.69738997        0.51230810       -0.26850814
 C           -3.12139395       -1.66893162       -1.23074512
 C           -1.66165369       -3.43412741       -0.42907426
 C           -0.23470755       -3.57049608       -0.68467486
 C           -2.46306162       -2.94744789       -1.44347523
 C            1.39561447       -2.03553234       -1.57162853
 C            0.31998956       -2.91130837       -1.77738872
 C            2.31261519        0.14535203       -2.19812488
 C            1.77240249       -1.14740078       -2.57600002
 C            1.45056800        2.39876327       -2.60531971
 C            1.76346917        1.14281424       -3.10046390
 C           -0.36004446        3.46042410       -1.57696639
 C           -1.52399409        2.91604116       -1.03132438
 C            0.13225026        2.96740926       -2.85190475
 C           -3.11109938        1.11858718       -1.45590442
 C           -2.46136979        2.34536123       -1.87874315
 C           -3.31792841       -1.06508709       -2.53765046
 C           -3.35114947        0.31482179       -2.64305117
 C           -1.90720562       -2.92299741       -2.78301685
 C           -0.46631377       -2.79839633       -2.92355656
 C           -2.52431721       -1.82149694       -3.49497802
 C            0.91967916       -0.95379109       -3.73744681
 C            0.84517758        0.47277405       -4.00744350
 C           -0.20727106       -1.74637048       -3.88977992
 C           -1.48350950       -1.14050778       -4.24823929
 C           -0.75490350        2.32402168       -3.70366853
 C           -2.14332176        2.22069336       -3.29146189
 C           -2.65934046        0.94770116       -3.75545424
 C           -0.37860282        1.05907090       -4.31765795
 C           -1.57496177        0.23588886       -4.41381145
