   70
C70 / DATE: 7/ 1/2024 / Origin: Program Fullerene / C70 from database
 C            1.14691445        0.08987391        4.32293226
 C            2.46409851       -0.17359717        3.78951303
 C            2.52116039       -1.59125305        3.49991972
 C            0.32769370       -1.09519216        4.09524974
 C            1.15391108       -2.07520731        3.43503098
 C           -0.88814585       -0.66526203        3.44315158
 C            0.41239440        1.21639042        3.79372055
 C           -0.95295995        0.77398113        3.58949208
 C            0.98799772        2.01752963        2.81202190
 C            2.87737892        0.53094880        2.58824659
 C            2.04028949        1.50172365        2.04382806
 C            3.34706491       -1.76132780        2.32481912
 C            3.49646570       -0.44444022        1.70761271
 C            3.05415311       -2.83466244        1.50189358
 C            0.72142741       -2.65983630        2.24709732
 C            1.68109117       -3.33242244        1.49906405
 C           -1.24979929       -1.21772870        2.21967028
 C           -0.44057394       -2.18935843        1.60809864
 C           -2.19356121       -0.53396226        1.45628022
 C           -1.72962426        1.48947594        2.69125801
 C           -2.53943104        0.78314091        1.80503245
 C            0.15960327        2.97841252        2.24896385
 C           -1.27547060        2.75151170        2.31135344
 C            0.45457104        3.48920858        0.92563695
 C            2.06708408        1.72635503        0.66380293
 C            1.38135922        2.82072368        0.13212184
 C            3.34494046       -0.31424975        0.32540517
 C            2.63936898        0.77667691       -0.19500036
 C            3.47783984       -2.75050952        0.12333718
 C            3.55648957       -1.43518513       -0.48159362
 C            1.36742431       -3.76252117        0.15644640
 C            2.54865984       -3.53735465       -0.65970575
 C           -0.75912222       -2.62915423        0.31092441
 C            0.12990314       -3.45991990       -0.39486372
 C           -2.64376755       -1.10189061        0.26447784
 C           -1.91899446       -2.14410573       -0.31852839
 C           -3.63386750       -0.46410543       -0.48396312
 C           -3.40168621        1.51597259        0.99859491
 C           -4.05327601        0.87189998       -0.11704890
 C           -1.88335481        3.42154458        1.17241189
 C           -0.80351596        3.94370509        0.34733126
 C           -2.99675224        2.84533795        0.57321469
 C           -0.94239255        3.98011425       -1.03401673
 C            1.35470921        3.00912479       -1.24620123
 C            0.21151954        3.66823846       -1.85673044
 C            2.30693468        0.78169903       -1.55136842
 C            1.73674819        1.91323200       -2.11269228
 C            2.90291688       -1.51808014       -1.77911179
 C            2.37480947       -2.86694306       -1.93361197
 C            2.15460102       -0.43075730       -2.21446082
 C            0.04462480       -3.53181948       -1.78184419
 C            1.15605462       -3.02583869       -2.57006959
 C           -2.18713832       -2.47299528       -1.64912362
 C           -1.16687906       -3.11506935       -2.44096632
 C           -3.53957269       -0.48168436       -1.93095968
 C           -2.77141438       -1.46784020       -2.51458891
 C           -3.87726733        1.72344552       -1.28569314
 C           -3.15720270        2.91434808       -0.87063109
 C           -2.10872248        3.37444582       -1.65982786
 C           -3.31666438        0.89387580       -2.33640986
 C           -0.23781563        2.84285684       -2.96667555
 C            0.67812568        1.72963851       -3.08937173
 C           -1.64276942        2.55935481       -2.77371954
 C           -2.09207660        1.24770191       -2.90259972
 C            1.03535082       -0.62695867       -3.03095705
 C            0.62564521       -1.91858181       -3.33825819
 C           -0.78897873       -2.17737974       -3.49178730
 C           -1.71078743       -1.06075375       -3.41760788
 C            0.17598161        0.44670810       -3.27875901
 C           -1.21372162        0.23875135       -3.31920786
