   70
C70 / DATE: 7/ 1/2024 / Origin: Program Fullerene / C70 from database
 C            1.53646717       -0.06726913        4.74918987
 C            0.72755635       -1.24906853        4.53022803
 C            1.32075008       -2.01788929        3.44727655
 C            2.64993796       -0.12295616        3.82347431
 C            2.49156711       -1.29995160        2.98246044
 C            2.73432072        1.16847903        3.17215528
 C            0.72901409        1.08534543        4.38657508
 C            1.44963467        1.82467907        3.36495599
 C           -0.64708832       -0.81422335        4.37981966
 C           -0.60869937        0.60971645        4.08098736
 C           -1.48673169       -1.61658807        3.62700185
 C            0.47041191       -2.59499270        2.51484500
 C           -0.88769082       -2.67175984        2.82585472
 C            0.86761275       -2.66384557        1.17808624
 C            2.71934865       -1.16528684        1.61437716
 C            1.87986322       -1.81900982        0.70146872
 C            3.29257985        1.20199331        1.90770610
 C            3.44511385       -0.05713200        1.19338017
 C            2.76161880        2.14481874        0.94344008
 C            0.74896880        2.27910265        2.24831232
 C            1.44973814        2.57597238        1.07280488
 C           -1.23640838        1.07969495        2.92872290
 C           -0.63693519        2.10899732        2.20049497
 C           -2.47201259       -0.98319553        2.77391107
 C           -2.26165603        0.32642338        2.34586393
 C           -1.84368265       -3.00953395        1.78638232
 C           -2.88217129       -1.98699539        1.80994187
 C            0.05341424       -3.34241164        0.27943661
 C           -1.36602809       -3.47501991        0.57016672
 C            0.19444072       -3.09792690       -1.14068724
 C            1.99603072       -1.55531857       -0.67864058
 C            1.10614829       -2.14896446       -1.58688329
 C            3.49241017        0.26313201       -0.21317168
 C            3.21060404        1.68485532       -0.34921849
 C            2.92238895       -0.60495874       -1.13325708
 C            2.53695581        2.09592667       -1.48932085
 C            0.74844944        2.95120315       -0.07477066
 C            1.32328933        2.78823500       -1.34587841
 C           -1.34600203        2.69439176        1.16431763
 C           -0.61020673        3.23478543        0.03758977
 C           -2.86176065        0.76662179        1.16149142
 C           -2.51380581        2.00867319        0.64076467
 C           -3.45962061       -1.56701754        0.62215088
 C           -3.52506093       -0.14288086        0.33696364
 C           -2.09807249       -3.17691627       -0.64821127
 C           -1.13304345       -3.14139315       -1.73283405
 C           -3.13736229       -2.25223645       -0.61901572
 C           -1.38901396       -2.36395666       -2.85221772
 C            0.95907363       -1.63015990       -2.87611552
 C           -0.27433655       -1.71863965       -3.52039617
 C            2.82935358       -0.12802980       -2.43672361
 C            2.74286516        1.31105964       -2.61935974
 C            1.89857146       -0.73478830       -3.36188914
 C            1.99429872        1.57013038       -3.82849352
 C            1.47743901        0.29630871       -4.30145484
 C            0.55926001        3.09324798       -2.47743275
 C            0.89658425        2.50693099       -3.76327301
 C           -1.46939485        3.13959560       -1.12808843
 C           -2.53625378        2.21015046       -0.80071726
 C           -0.88917028        3.08120406       -2.38099682
 C           -3.46363654        0.02401207       -1.10775658
 C           -3.27830485       -1.29001213       -1.70014251
 C           -2.49246465       -1.41135909       -2.83501097
 C           -2.79894732        1.12762006       -1.63802654
 C           -0.80877631       -0.55053875       -4.19934626
 C            0.06088671        0.46183213       -4.57722170
 C           -0.29260693        1.83703672       -4.26814716
 C           -1.37385344        2.09478044       -3.33016255
 C           -2.04162289       -0.20662141       -3.51079298
 C           -2.15454663        1.03189169       -2.87694315
