   70
C70 / DATE: 7/ 1/2024 / Origin: Program Fullerene / C70 from database
 C            1.32691341        0.00455478        5.51235555
 C            0.43092269       -1.12047633        5.68386425
 C            1.06020769       -2.27785015        5.06906177
 C            2.43256181       -0.42892621        4.66999958
 C            2.24883147       -1.82648567        4.36295013
 C            2.51563904        0.49570733        3.56347854
 C            0.60515097        1.03508071        4.78394458
 C            1.47175760        1.48991084        3.72751958
 C           -0.78719478       -0.82828570        4.94362558
 C           -0.68646377        0.51379281        4.39471944
 C            0.14397765       -2.79225481        4.07221077
 C           -1.01604398       -1.92079988        4.02223209
 C            2.11644476       -2.21473054        2.96518828
 C            0.88937941       -2.97666925        2.83878948
 C            2.73767896        0.02271454        2.27040186
 C            2.42869340       -1.30687314        1.94670530
 C            2.61328491        0.96087347        1.25828175
 C            0.89674494        1.95869031        2.55889807
 C            1.73843922        2.02834602        1.46999745
 C           -1.10991646        0.72609830        3.08060773
 C           -0.44489564        1.67202189        2.28909678
 C           -1.51174097       -1.62064113        2.76323636
 C           -1.80768462       -0.29492106        2.43955361
 C            0.19111808       -2.85039525        1.64785012
 C           -1.14234749       -2.45683398        1.71858558
 C            1.96651417       -1.59080415        0.64724177
 C            0.89935428       -2.48600903        0.50506658
 C            2.80506978        0.53979255       -0.04942506
 C            2.26410319       -0.69857149       -0.39624498
 C            2.88076065        1.54200679       -1.00478781
 C            1.27861865        2.69872657        0.35854172
 C            2.17235531        2.76697830       -0.69330473
 C           -0.90713049        1.89671563        0.98089716
 C           -0.08959289        2.59399340        0.07780995
 C           -2.30949143       -0.06230361        1.16249018
 C           -1.94491800        1.10471787        0.48079126
 C           -1.81488821       -2.29372984        0.52176978
 C           -2.64502308       -1.18327709        0.41107519
 C            0.20606337       -2.53935172       -0.70054001
 C           -1.17405977       -2.73379533       -0.62703187
 C            1.64338365       -0.86369029       -1.64731057
 C            0.74515182       -1.91583501       -1.82355027
 C            2.57005570        1.23296347       -2.38044835
 C            1.78573286        0.11517640       -2.64605893
 C            1.73396901        3.35477937       -1.92853851
 C            2.23706008        2.50516714       -2.99341479
 C           -0.54405363        2.82935382       -1.22786447
 C            0.31042631        3.47796781       -2.12924490
 C           -2.35552939        1.26104817       -0.84963316
 C           -1.67975648        2.14983748       -1.69431131
 C           -3.31927243       -0.99236864       -0.78326262
 C           -3.23129144        0.31722458       -1.39914275
 C           -1.92226014       -2.78292155       -1.79281064
 C           -3.13266048       -1.98229887       -1.83137014
 C            0.10559364       -2.07864286       -3.04774991
 C           -1.24038866       -2.62089707       -3.05982841
 C            0.97539638        0.08910966       -3.79406408
 C            0.15357538       -1.00914065       -4.02435276
 C            1.24545923        2.52784581       -4.04000978
 C            0.12333233        3.32389544       -3.55552602
 C            0.69431652        1.27020956       -4.49015740
 C           -2.02532764        2.19016760       -3.05018463
 C           -1.08477847        2.69455561       -4.02673387
 C           -0.68221686        1.55846113       -4.84005918
 C           -3.29617051        0.12697903       -2.84119130
 C           -3.18209043       -1.29839690       -3.10776629
 C           -2.06579213       -1.77283316       -3.90355031
 C           -1.20204472       -0.78960616       -4.52046148
 C           -2.62465314        1.02020375       -3.65993107
 C           -1.66436025        0.51494859       -4.63897548
