   70
C70 / DATE: 7/ 1/2024 / Origin: Program Fullerene / C70 from database
 C            1.27336456       -0.00122167        4.33547038
 C            2.52527596       -0.25605224        3.66157635
 C            2.52751959       -1.65289538        3.27199953
 C            0.44329431       -1.19207644        4.19896081
 C            1.16005217       -2.13095913        3.36779431
 C           -0.86998107       -0.75566026        3.77982449
 C            0.47026401        1.12400894        3.90357164
 C           -0.90758066        0.68339645        3.95685074
 C            0.87522102        1.90292117        2.81980837
 C            2.84676920        0.51892547        2.48075246
 C            1.99508764        1.53209023        2.05806853
 C            3.19284739       -1.74969221        1.98775040
 C            3.37790807       -0.39470115        1.48485210
 C            2.74201328       -2.71525963        1.10390538
 C            0.55614079       -2.64235057        2.22147243
 C            1.38600199       -3.22686007        1.26759736
 C           -1.44532328       -1.29877198        2.63563154
 C           -0.71748183       -2.19806815        1.83556110
 C           -2.57096192       -0.66077716        2.10902556
 C           -1.84840079        1.40677563        3.24449819
 C           -2.77796999        0.69120109        2.38415057
 C           -0.05356154        2.78885093        2.26803062
 C           -1.41542747        2.58792837        2.51410219
 C            0.33198708        3.57761172        1.18862720
 C            2.09734948        1.96284448        0.73948029
 C            1.44848098        3.13322580        0.37561256
 C            3.14309435       -0.13663372        0.13240518
 C            2.53432486        1.06938919       -0.24503229
 C            2.93568618       -2.49237323       -0.31285412
 C            3.18753453       -1.20015977       -0.77149463
 C            0.86677137       -3.52567151       -0.05582387
 C            1.94969629       -3.30787954       -0.99865765
 C           -1.25798612       -2.62818399        0.61817893
 C           -0.41875540       -3.11896711       -0.38954069
 C           -3.20341998       -1.20633375        1.00009783
 C           -2.58245848       -2.32802519        0.32756955
 C           -3.70233542       -0.30579115       -0.02850929
 C           -3.14370106        1.58147623        1.29288383
 C           -2.38842530        2.81102254        1.45349651
 C           -3.34027311        1.03558763        0.02756551
 C           -0.68554894        4.10756522        0.29745392
 C           -2.01312454        3.52493850        0.32943721
 C            1.11268078        3.35807332       -1.01638055
 C           -0.18683340        4.00747092       -1.06100102
 C            2.24868485        1.31831859       -1.59397202
 C            1.39682732        2.36761541       -1.94716953
 C            3.04414745       -0.94273004       -2.12862358
 C            2.57588975        0.36320605       -2.55341450
 C            1.64354904       -3.00347006       -2.31421221
 C            2.39066659       -1.93964424       -2.96124456
 C           -0.75805909       -2.96453607       -1.74125572
 C            0.24892899       -2.85513290       -2.69675815
 C           -3.00857240       -2.29040442       -1.05511691
 C           -3.65216077       -1.00697234       -1.28923434
 C           -2.01295704       -2.48021281       -2.08647152
 C           -2.98667754       -0.37133592       -2.40316796
 C           -2.09445682       -1.35210342       -3.00166195
 C           -2.77316950        1.65950766       -1.09557805
 C           -2.28412307        2.96349298       -0.98426043
 C           -1.23038434        3.41598763       -1.87837322
 C           -2.55913179        0.94526168       -2.28540686
 C            0.55197220        2.22528145       -3.04782832
 C           -0.84826177        2.59606546       -2.92625655
 C           -1.62526150        1.40361195       -3.20903235
 C            1.69683769        0.17325098       -3.69790037
 C            1.49440350       -1.24907677       -3.87018943
 C            0.16004863       -1.78933802       -3.68407526
 C           -0.93351361       -0.92364282       -3.64522635
 C            0.60512654        1.01218708       -3.84064209
 C           -0.74016888        0.44487409       -3.85769723
