   70
C70 / DATE: 7/ 1/2024 / Origin: Program Fullerene / C70 from database
 C            1.10868913        0.20039383        4.77897944
 C            2.39394969        0.03511454        4.13158390
 C            2.52366923       -1.36929982        3.80895332
 C            0.32043359       -0.99441919        4.50594849
 C            1.19645111       -1.95871966        3.88317424
 C           -0.86492545       -0.58406575        3.78472889
 C            0.30151394        1.33742899        4.40465719
 C           -1.00613439        0.83377617        4.01254743
 C            0.75430737        2.19267622        3.32262268
 C            2.67738542        0.78507304        2.91671972
 C            1.80846066        1.79033578        2.50070715
 C            3.23471262       -1.46744158        2.54474986
 C            3.18322872       -0.15053620        1.92572505
 C            2.95869199       -2.56732685        1.75266455
 C            0.75477180       -2.66616747        2.77311144
 C            1.74760424       -3.31273466        2.05108019
 C           -1.07426851       -1.08082390        2.50056496
 C           -0.40349044       -2.23930689        2.09305346
 C           -1.77760030       -0.31403590        1.55805271
 C           -1.45973880        1.65435484        2.91360808
 C           -0.45459699        2.67594313        2.69206263
 C           -2.00824124        1.05051417        1.78672101
 C           -0.37093649        3.18428459        1.40915389
 C            1.74286691        2.10785528        1.14440691
 C            0.85339373        3.10297856        0.74598766
 C            2.75825650       -0.01989126        0.60143342
 C            2.18654676        1.18027098        0.19258270
 C            2.95922580       -2.39913307        0.31459817
 C            2.64596983       -1.14863499       -0.21862133
 C            1.38364041       -4.02414661        0.85497879
 C            2.28226308       -3.56773848       -0.19645046
 C           -0.74630764       -2.82246905        0.86790786
 C            0.04096763       -3.85365170        0.35256813
 C           -2.03486762       -0.85217427        0.29156264
 C           -1.63930550       -2.16520766        0.01319659
 C           -2.57910242       -0.03896218       -0.71985783
 C           -2.22757910        1.88037146        0.69128281
 C           -1.51674400        3.08634154        0.63526401
 C           -2.74882319        1.33226970       -0.47635500
 C           -1.55626830        3.85709615       -0.51492311
 C            0.90127936        3.52728492       -0.57859472
 C           -0.28209376        4.16454057       -1.13421673
 C            1.82038531        1.33520600       -1.14168958
 C            1.39740509        2.58841517       -1.57236385
 C            1.95193096       -1.05987647       -1.44078344
 C            1.53931033        0.19945020       -1.90777356
 C            1.48293954       -3.42336326       -1.38607429
 C            0.17232200       -3.97570782       -1.08023351
 C            1.53803305       -2.23134851       -2.10040712
 C           -1.89058446       -2.70845429       -1.24482435
 C           -0.88424454       -3.56113966       -1.86451897
 C           -2.82159540       -0.56206120       -2.00165967
 C           -2.44331482       -1.86767627       -2.28850345
 C           -2.88834575        0.30686156       -3.08923862
 C           -3.11202442        2.19724452       -1.50733683
 C           -2.48804165        3.50414633       -1.56319075
 C           -3.15389969        1.70761774       -2.86330119
 C           -0.37317888        3.79127870       -2.53118969
 C            0.55182179        2.68872616       -2.74707987
 C           -1.77866756        3.60210247       -2.83049452
 C           -2.15781964        2.45317824       -3.62017061
 C            0.74053468        0.30976404       -3.05674602
 C           -1.83616875        0.23523786       -4.09228743
 C            0.10848462        1.51975842       -3.35691145
 C           -1.13506898        1.49554773       -3.99527831
 C            0.66736902       -2.13838258       -3.17807045
 C           -0.54438829       -2.94061815       -3.12737700
 C           -1.64881770       -2.08510924       -3.48668112
 C            0.30358997       -0.84081168       -3.70523986
 C           -1.08522122       -0.92200335       -4.13849523
