   70
C70 / DATE: 7/ 1/2024 / Origin: Program Fullerene / C70 from database
 C            1.63367513       -0.10584234        4.94196730
 C            0.77913178       -1.26552576        5.10888234
 C            1.29111594       -2.31219292        4.24645541
 C            2.61575279       -0.41662079        3.91516942
 C            2.35881107       -1.75362316        3.43122729
 C            2.59679478        0.66232477        2.95755818
 C            0.81169123        0.97612579        4.43265891
 C            1.52448194        1.57077989        3.32201436
 C           -0.54526593       -0.92060975        4.61816548
 C           -0.51481569        0.45764807        4.16996976
 C            0.15548243       -2.89489666        3.56220725
 C           -0.94124443       -1.94109375        3.66543568
 C            0.39069356       -3.46938135        2.32666944
 C            2.32744466       -1.98677648        2.05512413
 C            1.60188230       -3.08780159        1.61087695
 C            2.74481865        0.37253450        1.60770197
 C            2.60815670       -0.94547713        1.15333185
 C            2.44422403        1.39404005        0.71822276
 C            0.78549513        2.11039316        2.27704600
 C            1.44848059        2.30855488        1.07467579
 C           -1.09617418        0.77101765        2.94680763
 C           -0.58250280        1.84271972        2.21294752
 C           -1.60206094       -1.55024262        2.50009086
 C           -1.85454600       -0.19286151        2.27810367
 C           -0.67329918       -3.44105504        1.34696617
 C           -1.62910416       -2.42815490        1.41572988
 C            1.32816226       -3.24390964        0.19569544
 C           -0.03997845       -3.71964626        0.07580464
 C            2.46500181       -1.15777511       -0.22791752
 C            1.78391006       -2.28856426       -0.70297870
 C            2.73314403        1.20511959       -0.62482218
 C            2.74149194       -0.10757223       -1.11288211
 C            2.50902225        2.28249259       -1.47760171
 C            0.77915719        3.00082054        0.07254515
 C            1.44414464        3.20411063       -1.13406088
 C           -1.27633641        2.24587495        1.07322985
 C           -0.61601308        3.02318914        0.11507478
 C           -2.51570396        0.18972128        1.11365352
 C           -2.40465247        1.51724404        0.69962922
 C           -2.28603271       -2.04277638        0.24683600
 C           -2.89318002       -0.78888696        0.19073230
 C           -0.74341207       -3.42178928       -1.07604770
 C           -2.00526319       -2.71801134       -0.94289615
 C            1.23817952       -2.28316207       -1.98974373
 C           -0.03740653       -2.80968368       -2.18784998
 C            2.63930001       -0.35434145       -2.48128171
 C            1.72310672       -1.38112340       -2.92596689
 C            2.49403032        2.09255075       -2.91128171
 C            2.53287508        0.74446902       -3.42373139
 C            0.69373547        3.49589321       -2.34568550
 C            1.29397826        2.73043677       -3.42651726
 C           -1.33061172        3.50817479       -0.97699051
 C           -0.68904689        3.55865234       -2.27798312
 C           -3.19541973        1.97329233       -0.34726373
 C           -2.68853790        3.03728818       -1.19248488
 C           -3.54321147       -0.40825877       -0.98252947
 C           -3.82677096        0.99666610       -1.21067308
 C           -2.26535619       -2.07130470       -2.21792820
 C           -1.00738188       -2.03440548       -2.94685100
 C           -3.09011897       -0.96310607       -2.24650441
 C            0.77715282       -0.74566797       -3.83122164
 C            1.32634695        0.53326788       -4.21185334
 C            0.49377058        1.70746275       -4.07929957
 C           -0.58201868       -0.85853867       -3.56156980
 C           -1.46100576        2.69122728       -3.15006520
 C           -2.78500526        2.58879606       -2.57455766
 C           -3.44224897        1.30353153       -2.58035174
 C           -2.71970352        0.15533748       -3.09181629
 C           -0.84105906        1.57000567       -3.70464628
 C           -1.39015349        0.28891607       -3.50335181
