   70
C70 / DATE: 7/ 1/2024 / Origin: Program Fullerene / C70 from database
 C            1.57822506        0.05413604        4.41314738
 C            0.77181117       -1.13489096        4.19683743
 C            1.51803493       -2.01900890        3.33850399
 C            2.70070404       -0.00078686        3.49231244
 C            2.72163120       -1.32029694        2.90804944
 C            2.60839904        1.13227921        2.59904723
 C            0.77050937        1.20237963        4.05147218
 C            1.46466004        1.92760316        3.01179522
 C           -0.53722272       -0.71645376        3.75699443
 C           -0.56706842        0.73595567        3.76220661
 C           -1.14127958       -1.37710643        2.69082232
 C            0.84286914       -2.77918187        2.39102091
 C           -0.47564262       -2.42929068        2.03016099
 C            1.65376744       -3.41231685        1.45830252
 C            3.11140199       -1.46564174        1.58096075
 C            2.82940886       -2.69692247        0.99281484
 C            2.81803922        0.93372490        1.23508041
 C            3.22008248       -0.32630712        0.76634476
 C            2.29355220        1.87426244        0.33873445
 C            0.71139636        2.52781371        2.01616420
 C            1.33672226        2.78605889        0.80799430
 C           -1.27930063        1.36526232        2.75060189
 C           -0.68387863        2.40974157        2.03126637
 C           -2.20590351       -0.73568548        2.06014165
 C           -2.31353510        0.65584962        2.15454460
 C           -2.93010400       -1.42895587        1.10369955
 C           -1.08569337       -3.03687638        0.91446423
 C           -2.30571948       -2.55704762        0.44691171
 C            1.05548057       -4.07740560        0.32894483
 C           -0.32866182       -3.79950670        0.03017423
 C            2.91236085       -2.86111067       -0.44703509
 C            1.84418877       -3.75578547       -0.85038747
 C            3.47184053       -0.48494794       -0.59296092
 C            3.19781779       -1.75937261       -1.23482495
 C            2.55551718        1.75196280       -1.03304982
 C            3.07966993        0.56171398       -1.51794031
 C            1.89040691        2.56635449       -1.94305932
 C            0.69699588        3.65127916       -0.06240122
 C            1.06582760        3.64897895       -1.45755044
 C           -1.42294266        3.03468627        1.01608503
 C           -0.74839371        3.76240253        0.02805000
 C           -3.18248291        1.35294618        1.32602973
 C           -2.73968726        2.62816690        0.79037894
 C           -3.69670694       -0.70315530        0.10749439
 C           -3.91451757        0.65274128        0.28388398
 C           -2.49490584       -2.39434452       -0.98942201
 C           -3.29672163       -1.19891862       -1.20239162
 C           -0.42530771       -3.52501440       -1.39473641
 C            0.92785926       -3.33409592       -1.89378318
 C           -1.44381363       -2.69400081       -1.85244033
 C            2.39734307       -1.49673448       -2.42390251
 C            2.44125843       -0.06409067       -2.66737087
 C            1.21614500       -2.20316474       -2.65090457
 C            1.19740599        1.94176317       -3.05986229
 C            1.35993572        0.57477670       -3.26986848
 C           -0.15527668        3.67283088       -2.24401388
 C           -1.27210011        3.81810033       -1.33272933
 C           -0.13033454        2.53180435       -3.14092500
 C           -3.31640490        2.76937130       -0.53445829
 C           -3.94543580        1.50807958       -0.88572600
 C           -2.45388315        3.16004852       -1.62995372
 C           -2.95799984       -0.30373367       -2.21706790
 C           -1.24541522        1.70188651       -3.22721476
 C           -3.33874976        1.03149500       -2.11533174
 C           -2.43732448        2.06798316       -2.59746220
 C           -1.19665093       -1.86678207       -2.94597093
 C            0.17725241       -1.58923905       -3.33952580
 C            0.26995640       -0.18107185       -3.69477970
 C           -1.96837157       -0.64756586       -3.13018121
 C           -1.07104039        0.38237168       -3.63220568
