   70
C70 / DATE: 7/ 1/2024 / Origin: Program Fullerene / C70 from database
 C            1.59935195        0.00661752        4.55355555
 C            0.79314643       -1.18433509        4.36071356
 C            1.36755284       -1.94994837        3.26784537
 C            2.65567082       -0.00908216        3.55788636
 C            2.53029216       -1.22183119        2.78777162
 C            2.60894771        1.24305947        2.84301101
 C            0.75377888        1.15586528        4.27871803
 C            1.39999516        1.94259022        3.25587968
 C           -0.58757916       -0.76400343        4.24820412
 C           -0.58298374        0.67348207        4.02038636
 C           -1.43647397       -1.54224719        3.47853321
 C            0.51068319       -2.53887634        2.33364534
 C           -0.86003087       -2.54536130        2.59100997
 C            0.96137384       -2.72297510        1.02079449
 C            2.73380364       -1.16590952        1.41984336
 C            2.20682469       -2.19530649        0.66108059
 C            2.93350837        1.26155466        1.48981912
 C            3.03684445        0.04992201        0.78595189
 C            2.56227047        2.40280200        0.79569685
 C            0.62818195        2.54149995        2.26621208
 C            1.32873549        3.06661806        1.18852408
 C           -1.29148526        1.17972965        2.93308034
 C           -0.69572310        2.11716086        2.06779007
 C           -2.49847688       -0.88540462        2.73892552
 C           -2.42886388        0.48648659        2.51746454
 C           -1.79230349       -2.73920648        1.49550042
 C           -2.85846034       -1.75682853        1.63484879
 C            0.06738598       -3.15325015        0.02873282
 C           -1.30936504       -3.03196035        0.22898306
 C            0.53939474       -3.42586231       -1.25332407
 C            2.68594525       -2.34540832       -0.62645955
 C            1.91724767       -3.11714567       -1.57600389
 C            3.15419168        0.06130961       -0.61570395
 C            3.19172095       -1.16151850       -1.29637877
 C            2.63358557        2.41825590       -0.64699599
 C            2.93044015        1.24520604       -1.33177543
 C            0.62284687        3.43542457       -0.02071686
 C            1.55641515        3.27487041       -1.12018155
 C           -1.39429548        2.53264037        0.92564817
 C           -0.69935914        3.04154946       -0.18129568
 C           -3.22367992        1.03001102        1.52004913
 C           -2.73615144        2.19049270        0.80361650
 C           -3.42552683       -1.19513163        0.49374620
 C           -3.83272113        0.13751052        0.54402199
 C           -2.14723758       -2.80241683       -0.85918215
 C           -3.20444723       -1.81057034       -0.74015043
 C           -0.26891132       -3.04934801       -2.40081604
 C           -1.58975887       -2.69633335       -2.19670866
 C            1.93298557       -2.40570957       -2.84194873
 C            2.78388708       -1.23818864       -2.69098686
 C            0.55398088       -2.21297690       -3.25542436
 C            2.67513102        1.19793500       -2.70161073
 C            2.42021579       -0.07482646       -3.34534208
 C            1.05849734        3.08229550       -2.39697660
 C            1.74643233        2.15574577       -3.27858544
 C           -1.23090593        2.93814574       -1.47653008
 C           -0.36966598        2.88077975       -2.57134180
 C           -3.34524217        2.17539384       -0.50846337
 C           -4.00149488        0.88903989       -0.68522343
 C           -2.50114688        2.40473255       -1.65759319
 C           -3.21247091       -1.03047902       -1.97231059
 C           -2.08076701       -1.45839962       -2.77487086
 C           -3.53738005        0.31348777       -1.93282033
 C           -2.64835232        1.27385636       -2.56085195
 C            0.12780126       -0.92859669       -3.59339895
 C            1.09657586        0.00790386       -3.94693451
 C            0.74187349        1.40594622       -4.01730138
 C           -0.55825218        1.80906734       -3.53606664
 C           -1.17247378       -0.51504851       -3.25818665
 C           -1.52552995        0.84549815       -3.26902863
