   70
C70 / DATE: 7/ 1/2024 / Origin: Program Fullerene / C70 from database
 C            1.09677825       -0.03145668        4.68568398
 C            2.38246372       -0.29447206        4.09380255
 C            2.35076228       -1.66167971        3.59249137
 C            0.31064491       -1.25013383        4.55365715
 C            0.96184789       -2.04872901        3.53621116
 C           -1.05705844       -0.84409574        4.33883136
 C            0.29156636        1.03673767        4.13352255
 C           -1.07042101        0.60974360        4.34152545
 C            0.62916954        1.60510123        2.89823145
 C            2.81017468        0.53178354        2.98583131
 C            1.88080501        1.33467269        2.31695232
 C            3.10163480       -1.66572929        2.36025575
 C            3.66530938       -0.33296112        2.20451358
 C            2.55950388       -2.28035496        1.23602478
 C            0.36327335       -2.19846216        2.28229175
 C            1.16689437       -2.46502356        1.15894169
 C           -1.71672063       -1.25638093        3.11751198
 C           -0.98479272       -1.85765700        2.10006816
 C           -2.04677927        1.02122050        3.36807482
 C           -2.61058999       -0.17460503        2.76500344
 C           -0.37936066        2.20877014        2.12780677
 C           -1.72760157        2.05593671        2.50771756
 C           -0.06845272        2.65485394        0.83520396
 C            2.10080985        1.63163130        0.96609872
 C            1.06595726        2.16232225        0.19775818
 C            4.00911272        0.06957350        0.92759238
 C            3.24898139        1.15656767        0.32783706
 C            3.29102853       -2.14748378        0.06481180
 C            4.12354304       -0.96580665       -0.08151043
 C            2.65458400       -2.39249702       -1.20743849
 C            0.55259718       -2.69145626       -0.08517245
 C            1.33918540       -2.83117945       -1.24089345
 C           -1.49796027       -1.81522554        0.81191339
 C           -0.83169856       -2.49820693       -0.19385017
 C           -3.05707100       -0.06532488        1.44993839
 C           -2.55546374       -0.94998017        0.48996311
 C           -2.71328871        2.34266592        1.57928623
 C           -3.43855102        1.20583578        1.03073565
 C           -1.02344509        3.33515643        0.08695507
 C           -2.40458232        3.23791971        0.49394689
 C           -0.99249456        3.23787016       -1.36315527
 C            1.10200260        2.05472989       -1.20023117
 C            0.06419469        2.56979227       -1.97923213
 C            3.21453736        0.92682077       -1.10709010
 C            3.81444865       -0.36400048       -1.36159883
 C            3.04271947       -1.32564973       -2.11962279
 C            2.06328425        1.24958003       -1.80744788
 C            2.07623291       -0.85525001       -3.00007831
 C            1.71316454        0.49584421       -2.93065258
 C            0.72880389       -2.82057218       -2.49105965
 C            1.12963291       -1.78171428       -3.42640683
 C           -1.48631033       -2.69202095       -1.40209127
 C           -0.70421624       -2.97040025       -2.58158429
 C           -2.92330211       -0.78880807       -0.85121860
 C           -2.54402970       -1.76588937       -1.76980301
 C           -3.65248338        1.45757240       -0.37978766
 C           -3.17612186        2.80214431       -0.65307665
 C           -2.35790532        3.00499780       -1.82808070
 C           -3.37694359        0.45611339       -1.30557233
 C           -2.55292801        2.14494949       -2.89708653
 C           -3.14601449        0.83956366       -2.62837018
 C           -0.10033738        2.10113563       -3.28372380
 C            0.68836668        0.96801230       -3.74182136
 C           -1.44460879        1.93301786       -3.80202572
 C           -0.05094023       -1.33386686       -4.14031394
 C           -1.18042694       -2.10938288       -3.65092412
 C           -2.36410118       -1.41579939       -3.17038306
 C           -2.58691544       -0.10787011       -3.57496557
 C           -0.21601388        0.02231886       -4.38097827
 C           -1.55408456        0.58517068       -4.32974420
