   70
C70 / DATE: 7/ 1/2024 / Origin: Program Fullerene / C70 from database
 C            1.23753402       -0.03667935        4.19895820
 C            2.44182278       -0.28503384        3.42589219
 C            2.40195278       -1.68045258        3.01026784
 C            0.38306043       -1.20754005        4.07102546
 C            1.03041558       -2.12762875        3.16226842
 C           -0.95192245       -0.75296473        3.74458548
 C            0.43823439        1.13605397        3.90325722
 C           -0.92998170        0.70134621        3.68156347
 C            0.97075839        2.12434953        3.09517402
 C            2.91241733        0.68597361        2.53908344
 C            2.24542119        1.90605390        2.42268527
 C            3.79533036        0.30709090        1.53039581
 C            3.10689602       -2.06314799        1.88133886
 C            4.02081069       -1.10721474        1.28968602
 C            2.39061976       -2.71364802        0.79480078
 C            0.32531126       -2.56047822        2.04442596
 C            1.01323571       -2.86798383        0.86616424
 C           -1.69446585       -1.44341065        2.79195681
 C           -1.06868248       -2.42937141        2.01433405
 C           -2.83070647       -0.80620383        2.30439844
 C           -1.72997590        1.34086529        2.73300827
 C           -2.84413924        0.64672752        2.26032117
 C            0.09947334        2.83075814        2.17625302
 C           -1.22601291        2.43145741        2.00970460
 C            2.18301860        2.56454888        1.12561114
 C            0.88199692        3.18995637        1.00324978
 C            3.72499373        0.96891326        0.23522787
 C            2.75117149        1.94550959        0.02077552
 C            4.02393869       -1.32381390       -0.14524004
 C            2.96915792       -2.27202183       -0.46103504
 C            4.00047052       -0.02645280       -0.79053803
 C            2.12826414       -2.00532304       -1.54247325
 C            0.30139234       -3.00842509       -0.31768423
 C            0.78544842       -2.39978169       -1.48519221
 C           -1.76586784       -3.02778248        0.96486320
 C           -1.02494145       -3.40129643       -0.22617119
 C           -3.48979709       -1.30006798        1.11065096
 C           -3.04021069       -2.47608345        0.53424225
 C           -3.49548991        1.04777952        1.02638485
 C           -3.78758643       -0.15353499        0.26245633
 C           -1.90500699        2.89990908        0.88604203
 C           -3.05319000        2.17726119        0.36604652
 C            0.25272117        3.23018322       -0.23341456
 C           -1.13208672        3.37736147       -0.25044149
 C            2.13460431        2.05763130       -1.23009089
 C            0.91132739        2.73237832       -1.36255516
 C            3.35197105        0.07994402       -2.00699801
 C            2.51510771       -1.02566142       -2.45441832
 C            2.61408190        1.29187438       -2.29092828
 C            1.53565243       -0.47094538       -3.36888872
 C            1.73369333        0.97369736       -3.39474441
 C           -0.09787429       -2.02065097       -2.50953215
 C            0.24344181       -0.98306991       -3.38171646
 C           -1.89386961       -3.24313139       -1.36896463
 C           -3.12607200       -2.62380596       -0.90671330
 C           -1.41411496       -2.47783609       -2.50021066
 C           -3.49819643       -0.20246818       -1.10224054
 C           -3.34983446       -1.44311004       -1.72184576
 C           -2.47803869       -1.56380990       -2.87518732
 C           -2.94893386        2.15711697       -1.08270067
 C           -1.88116954        3.07436290       -1.45520086
 C           -3.11072447        0.95862526       -1.78047977
 C            0.25484350        2.74149246       -2.59703591
 C            0.64587789        1.79548978       -3.63032684
 C           -1.19371267        2.86880872       -2.63969481
 C           -0.76472180       -0.23101718       -3.98469105
 C           -2.14501814       -0.41888760       -3.57490644
 C           -2.61991919        0.86281684       -3.08221088
 C           -0.56315863        1.19614811       -4.16220263
 C           -1.70104644        1.87825018       -3.57042503
