   70
C70 / DATE: 7/ 1/2024 / Origin: Program Fullerene / C70 from database
 C            1.49730517       -0.02891555        4.35711471
 C            2.64062447       -0.23400939        3.48123072
 C            2.42269356       -1.47667486        2.76194349
 C            0.64265638       -1.19928321        4.26428069
 C            1.23506458       -2.11626131        3.30876725
 C           -0.71136159       -0.74297027        4.03203248
 C            0.66357400        1.14708359        4.16396509
 C           -0.64677040        0.68122648        3.74367782
 C            1.21430297        2.25159174        3.53489995
 C            3.15932903        0.85670941        2.80021295
 C            2.58661201        2.16634547        3.05978215
 C            3.38036047        0.75182763        1.36536048
 C            2.64142394       -1.53927545        1.38840042
 C            2.91591195       -0.36684824        0.67763238
 C            2.13047441       -2.63765055        0.71413353
 C            0.40573453       -2.83028491        2.44573944
 C            0.95704814       -3.30583109        1.25920418
 C           -1.54123457       -1.53354670        3.25818846
 C           -0.98015607       -2.67501206        2.54179766
 C           -2.45760684       -0.88220514        2.34660523
 C           -1.21529194        1.17179047        2.56480611
 C           -2.17397259        0.40731316        1.89580727
 C            0.44530459        2.92923707        2.50523515
 C           -0.67912170        2.30808484        1.95371030
 C            2.67976943        2.94023790        1.83765298
 C            3.18770121        2.07064559        0.78982141
 C            1.39905136        3.58857554        1.62807555
 C            2.63016301        2.17655028       -0.47739329
 C            2.49770474       -0.23265388       -0.65441821
 C            2.50422492        1.02987096       -1.26194863
 C            1.97712841       -2.58399029       -0.72421235
 C            2.09255298       -1.36231704       -1.37826682
 C            0.09440107       -3.65058293        0.14173716
 C            0.87977640       -3.47032590       -1.06613208
 C           -1.82297367       -2.90087020        1.37210549
 C           -2.87067534       -1.89332606        1.39447246
 C           -1.24178755       -3.26034631        0.15852513
 C           -3.42505350       -1.47914445        0.19899745
 C           -2.63924243        0.80847216        0.64213492
 C           -3.45536546       -0.05695223       -0.09036953
 C           -1.11261789        2.68451474        0.67982750
 C           -2.10705251        1.94679458        0.03276848
 C            1.01753867        3.84429267        0.32365848
 C            1.81646632        3.27727715       -0.74989989
 C           -0.36101664        3.60707276       -0.04922200
 C            0.97814592        3.27283070       -1.93737499
 C           -0.38266027        3.55914595       -1.50021142
 C            2.04783103        1.16937788       -2.56835352
 C            1.19763746        2.30060545       -2.90213897
 C            1.53303749       -1.22566382       -2.65195956
 C            1.54776972        0.01241966       -3.28270911
 C            0.22047237       -3.26898025       -2.26387663
 C            0.70554964       -2.23067177       -3.15412685
 C           -1.88520993       -2.94411402       -1.04300081
 C           -3.03482701       -2.15216830       -1.02597755
 C           -1.22807973       -3.17043905       -2.25186291
 C           -3.55300694        0.08178706       -1.53271831
 C           -3.29986283       -1.22693933       -2.11890024
 C           -2.41699427        2.23252817       -1.29909567
 C           -1.45021533        2.93388313       -2.12345954
 C           -3.04142612        1.22085750       -2.13260689
 C            0.07908027        1.79987957       -3.68324135
 C            0.39693959        0.43643485       -4.07006471
 C           -1.22109264        2.12614730       -3.31153666
 C           -2.26321807        1.11140671       -3.35831880
 C           -0.40124526       -1.86949031       -4.02218817
 C           -1.61442746       -2.41428150       -3.43274530
 C           -2.57099472       -1.33219982       -3.29656714
 C           -0.63002494       -0.46684003       -4.31309987
 C           -1.98677599       -0.14175190       -3.89630717
