   70
C70 / DATE: 7/ 1/2024 / Origin: Program Fullerene / C70 from database
 C            1.26208079        0.08443845        5.05114417
 C            0.50597229       -1.12052625        4.76253530
 C            1.42099068       -2.08194597        4.19305915
 C            2.56374858       -0.05195084        4.41840789
 C            2.66836465       -1.39428936        3.89470261
 C            2.71666394        1.04913988        3.49465716
 C            0.57800597        1.19958576        4.41769791
 C            1.52745935        1.88218165        3.57219601
 C           -0.66060961       -0.74296149        3.98412636
 C           -0.62403720        0.69822476        3.79893383
 C           -1.05804206       -1.53187430        2.90253942
 C            1.01009820       -2.76693181        2.98885805
 C           -0.30592986       -2.66343997        2.54863991
 C            2.94117924       -1.56779049        2.47562562
 C            2.06467416       -2.61676882        1.99950662
 C            3.25434371        0.82382369        2.23226490
 C            3.14708656       -0.45863199        1.66279772
 C            3.23408415        1.92208097        1.38562870
 C            1.08259025        2.46547535        2.38795538
 C            2.07133816        2.79356299        1.46771146
 C           -0.99267382        1.19946864        2.55818657
 C           -0.20426748        2.16088832        1.91051973
 C           -1.88646653       -0.94434581        1.94153119
 C           -1.87519073        0.44793257        1.79687874
 C           -2.42695110       -1.73952536        0.93138778
 C           -0.56996574       -3.27009012        1.32822923
 C           -1.76524944       -2.90825199        0.59265265
 C            1.69205708       -2.65084716        0.65757741
 C            0.52085525       -3.33820579        0.36817997
 C            2.93088719       -0.59898552        0.28575576
 C            2.08968685       -1.61202733       -0.19752910
 C            3.54606812        1.73105510       -0.01161426
 C            3.34701504        0.41235009       -0.56781007
 C            1.69975543        3.16309886        0.12115743
 C            2.72395022        2.65618436       -0.76775112
 C           -0.58049869        2.55727727        0.61792742
 C            0.37998569        3.03789029       -0.28070730
 C           -2.44752135        1.03318881        0.67633089
 C           -1.82542120        2.15241689        0.11633938
 C           -3.26544670       -1.15902631       -0.01270057
 C           -3.35796597        0.28666669       -0.06186886
 C           -3.23544993       -1.64237280       -1.38704369
 C           -1.49564123       -3.18461390       -0.80737523
 C           -0.05001428       -3.24512151       -0.95362727
 C           -2.22621227       -2.52241315       -1.78721958
 C            1.52506645       -1.50786572       -1.48562087
 C            0.55432125       -2.43414664       -1.90168186
 C            2.68636285        0.57935603       -1.84590105
 C            2.29093534        1.97133674       -1.96730087
 C            1.78916667       -0.38447307       -2.28390351
 C            0.12334775        2.94839216       -1.64678451
 C            1.01577437        2.22852599       -2.45247560
 C           -2.22380272        2.61629750       -1.13890318
 C           -1.19681263        3.07126482       -2.05698375
 C           -3.68572832        0.66967930       -1.42141831
 C           -3.63681561       -0.53418604       -2.24535115
 C           -3.21184776        1.87797895       -1.91042558
 C           -3.17876145       -0.47414558       -3.55707929
 C           -1.61462691       -2.34948066       -3.02649984
 C           -0.16625094       -2.20238980       -3.07141835
 C           -2.18596682       -1.43391944       -3.99686130
 C            0.87633238       -0.01859279       -3.27337599
 C            0.49559185        1.32797509       -3.37714026
 C            0.11534240       -1.02101677       -3.85613677
 C           -1.08790706       -0.69371338       -4.59762824
 C           -1.55695218        2.62468876       -3.39035994
 C           -2.86610119        2.00021972       -3.31514622
 C           -2.83138043        0.80827233       -4.14356632
 C           -0.66607506        1.69499001       -4.05100527
 C           -1.48859856        0.69095916       -4.69342718
