   70
C70 / DATE: 7/ 1/2024 / Origin: Program Fullerene / C70 from database
 C            1.64415665       -0.09536771        5.10597876
 C            0.79835124       -1.27024427        5.20310735
 C            1.30859992       -2.24898997        4.26638333
 C            2.58962789       -0.30609896        4.01988890
 C            2.36249192       -1.62627562        3.47912634
 C            2.49107128        0.82483381        3.12264163
 C            0.79866324        1.01625607        4.72276643
 C            1.46955304        1.71606198        3.64431794
 C           -0.53633050       -0.90585000        4.75120525
 C           -0.53435395        0.50852779        4.45496967
 C            0.16854404       -2.78910164        3.55363345
 C           -0.91399056       -1.82458010        3.69639033
 C            0.40518145       -3.29990754        2.29214640
 C            2.32739585       -1.79830119        2.09721878
 C            1.63251091       -2.90244463        1.61850071
 C            2.51990123        0.60903242        1.74595773
 C            2.51873062       -0.70031847        1.24215225
 C            2.08706680        1.64976928        0.91853636
 C            0.67838719        2.36778793        2.71191531
 C            1.24346643        2.62193997        1.46761398
 C           -1.15474584        0.95712367        3.29627944
 C           -0.70177884        2.15807744        2.76645043
 C           -1.52816098       -1.32404354        2.54487643
 C           -1.78167305        0.04901232        2.42952130
 C           -0.63842046       -3.17384797        1.29964409
 C           -1.54321955       -2.12017759        1.39842234
 C            1.39253900       -3.02678573        0.19721019
 C            0.00550037       -3.40866790        0.02514758
 C            2.41839039       -0.87981262       -0.14266347
 C            1.90539482       -2.07426740       -0.66796561
 C            2.17260353        1.49436767       -0.46845510
 C            2.51725894        0.23470910       -0.97608632
 C            1.66102515        2.49264780       -1.31346275
 C            0.56249683        3.49399963        0.63404876
 C            0.75669474        3.41073950       -0.79613882
 C           -1.49548482        2.77110411        1.81164864
 C           -0.85471383        3.67587511        0.87735085
 C           -2.35310567        0.54326558        1.24880799
 C           -2.40012222        1.92607611        1.05166981
 C           -2.11194120       -1.63557996        0.22171673
 C           -2.53139881       -0.30518196        0.15051870
 C           -0.63591761       -2.96492491       -1.11639336
 C           -1.86745461       -2.33145092       -0.96425774
 C            1.42356030       -2.08265798       -1.97775778
 C            0.15267947       -2.62225482       -2.21312541
 C            2.57788111        0.02427269       -2.34991733
 C            1.97770816       -1.18457073       -2.88098867
 C            1.60407483        2.27494653       -2.68570698
 C            2.25040260        1.11114053       -3.24319957
 C            0.31780148        2.43358257       -3.34715873
 C           -0.54535652        3.53201590       -1.43633312
 C           -1.54597545        3.56673458       -0.39150150
 C           -2.46898723        2.45666663       -0.30134077
 C           -0.78615992        2.75706949       -2.56404988
 C           -2.85291963        0.24076641       -1.09733049
 C           -2.52533427        1.56885604       -1.36286984
 C           -1.89443186        1.90162891       -2.57002257
 C           -2.55483604       -1.95716847       -2.11085868
 C           -3.09977245       -0.61365325       -2.16617506
 C           -0.49189081       -2.40568096       -3.42649544
 C           -1.93348020       -2.23306786       -3.39540793
 C            1.26943162       -0.84417226       -4.10433243
 C            1.40336504        0.58945286       -4.30404923
 C            0.20547088        1.41343668       -4.37391704
 C            0.05085814       -1.44978615       -4.37654185
 C           -2.12649464        1.10415209       -3.68628263
 C           -2.90464754       -0.10869894       -3.51435804
 C           -2.28331954       -1.15758466       -4.30288291
 C           -1.02273403        0.80169031       -4.58702436
 C           -1.04968446       -0.62610279       -4.85271274
