   70
C70 / DATE: 7/ 1/2024 / Origin: Program Fullerene / C70 from database
 C            1.64644080        0.02180016        4.70875103
 C            0.80861247       -1.15236194        4.54621408
 C            1.43669646       -2.01488710        3.56454251
 C            2.68851876       -0.03358652        3.69704666
 C            2.56442528       -1.28752297        2.99795595
 C            2.62025838        1.17950752        2.92043420
 C            0.82847902        1.18771336        4.42998779
 C            1.52547991        1.98624159        3.44351581
 C           -0.54636924       -0.70640511        4.29888122
 C           -0.50681941        0.73529432        4.10330561
 C           -1.33987525       -1.47135538        3.46016672
 C            0.63453461       -2.76140934        2.70235226
 C           -0.75290467       -2.60507406        2.75401547
 C            1.21852622       -3.22445199        1.52748313
 C            2.73918615       -1.32150535        1.61961555
 C            2.36116598       -2.49929752        0.99544914
 C            2.78959715        1.11945448        1.53817323
 C            2.73544103       -0.12404476        0.87872994
 C            2.46959856        2.27527397        0.83624525
 C            0.77609351        2.71783649        2.52937012
 C            1.44772030        3.14643490        1.39019890
 C           -1.12621211        1.29710943        2.99014246
 C           -0.60177654        2.47442513        2.44459769
 C           -2.22882134       -0.79960715        2.53062581
 C           -2.03969447        0.54321618        2.24551164
 C           -1.55592340       -2.82379556        1.55878659
 C           -2.48663844       -1.70989141        1.43567856
 C            0.38877175       -3.62594396        0.40214975
 C           -0.97249859       -3.34214290        0.40666146
 C            2.29721423       -2.55730172       -0.44338580
 C            1.16933849       -3.40040578       -0.80517581
 C            2.56771273       -0.17143022       -0.52048701
 C            2.53342866       -1.40878376       -1.18188885
 C            2.27307838        2.22128186       -0.59397489
 C            2.27704948        0.99814473       -1.23577392
 C            0.70177812        3.72598934        0.29103155
 C            1.24490912        3.18210947       -0.94774936
 C           -1.35132565        3.13924546        1.47745225
 C           -0.66773270        3.87936211        0.42911978
 C           -2.52589269        1.04985813        1.04418990
 C           -2.44606994        2.42185838        0.85101400
 C           -2.75801418       -1.20158761        0.16883721
 C           -2.72651928        0.18418402       -0.04602256
 C           -1.62328492       -3.14054614       -0.80614214
 C           -2.59904385       -2.06492561       -0.90770216
 C            0.52744647       -3.15596418       -2.01317832
 C           -0.86780380       -3.17068929       -2.04971737
 C            2.21549397       -1.45955264       -2.53724110
 C            1.23300442       -2.44074744       -2.97816498
 C            1.70895502        0.91712807       -2.50297569
 C            1.93885779       -0.23013744       -3.24822164
 C            0.39787151        2.89079385       -2.01610744
 C            0.73509451        1.85251522       -2.89110537
 C           -1.49789731        3.83034896       -0.75720941
 C           -2.63809273        2.97205182       -0.46906626
 C           -0.91742281        3.36179415       -2.00183379
 C           -2.80532571        0.68763839       -1.35737284
 C           -2.78737621        2.06272135       -1.58412511
 C           -1.95319272        2.58033505       -2.65261953
 C           -2.54288406       -1.53584368       -2.25393435
 C           -1.58931889       -2.34122042       -3.00567587
 C           -2.59422898       -0.16136675       -2.44842249
 C            0.53410257       -1.88660146       -4.12327400
 C            1.07793736       -0.56037023       -4.36637388
 C           -0.91048922       -1.77496124       -4.07563024
 C           -0.16214309        1.54943088       -3.91673486
 C           -1.57821393        1.71324848       -3.66074425
 C           -2.12926544        0.37154430       -3.65080801
 C           -0.02389903        0.32014127       -4.67296983
 C           -1.25984859       -0.43031418       -4.49642407
