   70
C70 / DATE: 7/ 1/2024 / Origin: Program Fullerene / C70 from database
 C            1.15556481       -0.10464331        4.72254781
 C            2.42219149       -0.49755350        4.14719051
 C            2.23997330       -1.80235740        3.51879237
 C            0.29415810       -1.27008017        4.67246056
 C            0.84708738       -2.15925037        3.66509731
 C           -1.05694753       -0.78431360        4.48832309
 C            0.42628157        0.98569821        4.09988393
 C           -0.97604847        0.63825556        4.18267843
 C            0.92406587        1.54730439        2.92365494
 C            3.01224493        0.36074705        3.14343861
 C            2.29601626        1.45943827        2.66449528
 C            2.80371695       -1.71796634        2.18551318
 C            3.63078936       -0.52818568        2.17998953
 C            1.99435530       -1.97225812        1.08017618
 C            0.08810621       -2.43955381        2.53115118
 C            0.68821043       -2.43748378        1.25789432
 C           -1.86261510       -1.39021054        3.44896178
 C           -1.30400215       -2.37327684        2.63694414
 C           -1.82076545        0.88183931        3.03200841
 C           -2.59666930       -0.31966567        2.80093637
 C            0.04053364        1.93819103        1.90191915
 C           -1.30002251        1.53700962        1.92948950
 C            0.53748135        2.56059083        0.74874801
 C            2.81672603        2.11990518        1.56068301
 C            1.91139060        2.74662125        0.61348419
 C            3.99765319        0.00891258        0.96057731
 C            3.85250796        1.44413543        0.79634527
 C            2.38474769       -1.47900580       -0.16688417
 C            3.47043427       -0.60303367       -0.24870616
 C            1.52855533       -1.59692242       -1.26530183
 C           -0.08638197       -2.73749801        0.13620510
 C            0.29503341       -2.24728629       -1.12380328
 C           -2.06624860       -2.78235913        1.55623345
 C           -1.38504955       -3.18935904        0.34622651
 C           -3.08320515       -0.56851447        1.52074488
 C           -3.14241829       -1.90351179        1.13354783
 C           -1.99910459        1.45151887        0.73603611
 C           -2.91274376        0.40705316        0.52841360
 C           -0.27592557        2.68339466       -0.38864829
 C           -1.60488067        2.25241351       -0.32351272
 C            0.33344021        2.88811325       -1.63466613
 C            2.50819951        2.63566986       -0.70726747
 C            3.61142498        1.70078878       -0.60734520
 C            3.47022202        0.42188336       -1.27655822
 C            1.65947439        2.50684770       -1.79433653
 C            1.79678270       -0.84116080       -2.41089455
 C            2.52775280        0.33630172       -2.28672564
 C            1.94865695        1.52079327       -2.73699454
 C            0.99480345       -0.99017251       -3.53229931
 C           -0.58329675       -2.33430632       -2.21877981
 C           -0.27216848       -1.67615435       -3.40179073
 C           -2.35889751       -3.08980709       -0.71761672
 C           -3.43290146       -2.22755967       -0.24404009
 C           -1.93101106       -2.57925409       -1.99657239
 C           -3.40517082        0.16777034       -0.76291781
 C           -3.56968873       -1.14465584       -1.19413505
 C           -2.89116058       -1.56714010       -2.40539312
 C           -2.41522270        2.29674991       -1.44726355
 C           -3.23979148        1.14143797       -1.74193326
 C           -0.44301834        3.00342284       -2.78323941
 C           -1.86973363        2.78128052       -2.69728670
 C            1.18223048        1.47253301       -3.89475234
 C            0.78535624        0.16677892       -4.39182318
 C            0.03003148        2.35324205       -3.99422436
 C           -1.29572532       -0.83981711       -4.01446609
 C           -2.47719740       -0.59537916       -3.30989002
 C           -2.90820335        0.71771957       -3.09487625
 C           -2.24193386        1.83689957       -3.74059022
 C           -0.62541239        0.22637298       -4.73671197
 C           -1.07263812        1.59206228       -4.55854476
