   70
C70 / DATE: 7/ 1/2024 / Origin: Program Fullerene / C70 from database
 C            1.24881744        0.17888094        4.88040502
 C            2.52789295        0.01707222        4.22350407
 C            2.58546311       -1.33948023        3.71037974
 C            0.44331599       -0.99746301        4.58017824
 C            1.24290322       -1.89307370        3.77233264
 C           -0.82406036       -0.54446051        4.05410304
 C            0.45628152        1.34926538        4.56756600
 C           -0.87911070        0.89582582        4.21735097
 C            0.89582158        2.24746962        3.51280531
 C            2.88558403        0.90981353        3.13395554
 C            2.09138672        2.01615208        2.82492078
 C            3.25484326       -1.30165917        2.42144506
 C            3.41277582        0.09526854        2.04786333
 C            2.84679395       -2.20157543        1.45412341
 C            0.70107257       -2.44334375        2.61258640
 C            1.58925139       -2.90685167        1.65178416
 C           -1.29429918       -1.07757171        2.86236778
 C           -0.60689658       -2.12012049        2.22463415
 C           -2.19344153       -0.31778524        2.12499044
 C           -1.34159264        1.69644308        3.09292987
 C           -0.29110548        2.64076936        2.76620839
 C           -2.00473851        1.06146719        2.04829769
 C           -0.15017491        3.04235537        1.44509478
 C            2.25636338        2.60614335        1.57604244
 C            1.13283816        3.29649292        0.96979928
 C            3.18689051        0.50404381        0.73202307
 C            2.90651340        1.84597883        0.51829164
 C            2.87752238       -1.79094063        0.06501474
 C            2.84966777       -0.43686583       -0.25006623
 C            1.09297755       -3.26956033        0.34401130
 C            1.99352879       -2.69159461       -0.64272298
 C           -1.12542786       -2.62631685        1.02071909
 C           -0.27261832       -3.24009202        0.09080247
 C           -2.90836439       -0.94995167        1.12727976
 C           -2.40146439       -2.21380342        0.62740871
 C           -3.33872447       -0.17120790       -0.01535378
 C           -2.03977389        1.68188765        0.79620392
 C           -1.16271075        2.74058328        0.53100701
 C           -2.75380454        1.07246693       -0.24344837
 C           -1.04467064        3.22620664       -0.76592103
 C            1.37115004        3.31748303       -0.46140347
 C            2.33711605        2.26987358       -0.74477173
 C            0.28584424        3.45046180       -1.30944555
 C            2.22859057       -0.03560509       -1.44197353
 C            2.03287497        1.32383153       -1.71594100
 C            1.45817698       -2.29503101       -1.85775259
 C            1.72619099       -1.00513212       -2.32345558
 C           -0.65672340       -3.35060276       -1.24508207
 C            0.28963764       -2.93015255       -2.26497204
 C           -2.82337084       -2.32980113       -0.75873378
 C           -3.51327217       -1.09739385       -1.11672156
 C           -1.97962274       -2.93796487       -1.67255610
 C           -3.43534587       -0.61101755       -2.41236498
 C           -2.67901368        1.56931021       -1.54876349
 C           -1.85893441        2.65778132       -1.82462191
 C           -3.15345755        0.79971404       -2.61229053
 C            0.33032691        2.77864148       -2.59391642
 C            1.20308764        1.70478115       -2.77104028
 C           -1.04674993        2.65597776       -3.03330970
 C            1.19390519       -0.60898347       -3.54936428
 C            0.95426504        0.80015198       -3.79391483
 C           -0.45722201       -2.41057819       -3.39328471
 C           -1.86850328       -2.40444392       -3.02284295
 C           -2.69054875       -1.35303891       -3.41689202
 C            0.08032874       -1.35489959       -4.11751571
 C           -2.53294472        0.93580883       -3.92016410
 C           -1.34508359        1.76052576       -4.04940361
 C           -0.27559946        0.92123736       -4.56317714
 C           -2.21167650       -0.39840811       -4.40249942
 C           -0.80895249       -0.41339511       -4.77274276
