   70
C70 / DATE: 7/ 1/2024 / Origin: Program Fullerene / C70 from database
 C            0.97826891       -0.11739713        5.03396031
 C            2.26459776       -0.27996877        4.38419277
 C            2.18915616       -1.47093183        3.55229326
 C            0.14703455       -1.24573943        4.64358976
 C            0.81686455       -1.93309176        3.55488678
 C           -1.18944158       -0.74854133        4.42354368
 C            0.21381242        1.09853611        4.80243917
 C           -1.15332294        0.70511464        4.51851966
 C            0.77502823        2.13957979        4.07036063
 C            2.78263160        0.80160898        3.56497131
 C            2.14187618        2.03409734        3.57554357
 C            2.79799087       -1.15952002        2.27836632
 C            3.21862983        0.22903354        2.29788653
 C            2.20954982       -1.63294776        1.11815173
 C            0.16714522       -2.10039409        2.32862821
 C            0.93405237       -2.19990303        1.16374549
 C           -1.84896308       -1.07667828        3.17799238
 C           -1.21073170       -1.87250565        2.22265425
 C           -1.81367421        1.23738723        3.33460348
 C           -2.50429602        0.12892184        2.71748853
 C           -0.01385975        2.78485932        3.02996054
 C           -1.14082259        2.14270943        2.52028451
 C            2.24036861        2.87892681        2.40221100
 C            0.91554452        3.41514052        2.12272153
 C            3.11780505        0.96736669        1.11546752
 C            2.74579371        2.31142031        1.16535441
 C            2.62606045       -1.07202739       -0.07660622
 C            2.96691785        0.28558603       -0.09624580
 C            2.21951603       -1.67877149       -1.25756934
 C            0.30587283       -2.49758308       -0.04498399
 C            1.05964560       -2.46294209       -1.21996228
 C           -1.80691729       -1.92721146        0.95874324
 C           -1.08868517       -2.44682538       -0.12165874
 C           -2.79293039        0.18971103        1.37083202
 C           -2.83475720       -1.02048365        0.70184985
 C           -1.40309773        2.14494488        1.13915019
 C           -2.41508950        1.31515658        0.63604665
 C            0.68417908        3.28886060        0.70146261
 C            1.92350565        2.84810692        0.09412032
 C           -0.50049996        2.72846558        0.24125653
 C            2.67080070        1.02971523       -1.23845616
 C            1.84496996        2.13637846       -1.09311602
 C            2.61134622       -1.06903318       -2.44343758
 C            2.66606052        0.37626607       -2.46229546
 C            2.04882711       -1.50227198       -3.70508872
 C            0.47222150       -2.91519863       -2.39722268
 C            1.01161180       -2.50713827       -3.68162949
 C           -1.72030082       -2.54548577       -1.36955307
 C           -0.97449206       -2.89703471       -2.49546760
 C           -3.42859604       -1.01214588       -0.54177896
 C           -2.97176236       -1.95705549       -1.53569176
 C           -2.68151214        1.29616558       -0.74065712
 C           -3.51619705        0.27316729       -1.20125168
 C           -0.55306910        2.35170237       -1.09620514
 C            0.64246183        2.15261278       -1.79934759
 C           -1.74859845        1.87047770       -1.61445411
 C            1.71058153        0.80504515       -3.46875131
 C            1.51615088       -0.32011153       -4.36710972
 C            0.61449000        1.56706436       -3.06689548
 C           -0.08997302       -2.02121984       -4.49305794
 C           -1.32576855       -2.35834702       -3.80753195
 C            0.17710379       -0.62943199       -4.82515852
 C           -3.34358807       -1.39978267       -2.82503187
 C           -3.64954453        0.01042672       -2.61879730
 C           -2.40993686       -1.49873122       -3.92673182
 C           -1.83119971        1.66048498       -2.99023410
 C           -0.60359980        1.43372042       -3.73185060
 C           -0.82787947        0.31088902       -4.63802706
 C           -2.84562616        0.77982011       -3.53562671
 C           -2.18974040       -0.15301857       -4.43579485
