   70
C70 / DATE: 7/ 1/2024 / Origin: Program Fullerene / C70 from database
 C            1.33090858       -0.12085383        4.26370571
 C            2.55793506       -0.37645746        3.54710842
 C            2.47906150       -1.72147552        3.00535308
 C            0.47384798       -1.29078363        4.11594286
 C            1.11948538       -2.19087284        3.18995377
 C           -0.85622710       -0.81257011        3.80395472
 C            0.53664230        1.03106668        3.88963935
 C           -0.84293772        0.61751820        4.05011861
 C            0.88581242        1.78862740        2.76706514
 C            2.92133345        0.50646080        2.45848090
 C            2.14654794        1.62856062        2.16991884
 C            3.01105292       -1.68676969        1.65349839
 C            3.38997096       -0.31842181        1.35569525
 C            2.36145083       -2.40725616        0.66649448
 C            0.42910712       -2.63130038        2.06880028
 C            1.17711066       -3.07527571        0.98619008
 C           -1.51504365       -1.29042069        2.67139392
 C           -0.91253354       -2.27340710        1.86645813
 C           -2.60854080       -0.56456034        2.19052766
 C           -1.82210713        1.38745038        3.45621956
 C           -2.85413933        0.71471089        2.68935603
 C           -0.11286266        2.54074002        2.13048098
 C           -1.40379730        2.52429435        2.65793412
 C            0.12320266        3.11494036        0.87363029
 C            2.42407438        2.28679871        0.97970170
 C            1.42591136        3.15479544        0.39016472
 C            3.24110160        0.16512680        0.05488942
 C            3.05177105        1.53486214       -0.09947735
 C            2.59532719       -2.05464601       -0.65624180
 C            2.83673252       -0.70789565       -0.96773783
 C            2.19875041       -2.95030721       -1.64016929
 C            0.52434442       -3.79087163       -0.00228299
 C            1.14098266       -3.88732449       -1.31460288
 C           -1.57702270       -2.74339320        0.72233404
 C           -0.89376730       -3.54911768       -0.18982884
 C           -3.24900417       -0.96978077        1.02541558
 C           -2.70509505       -2.07194591        0.26139737
 C           -3.72974251        0.02638701        0.07697319
 C           -3.43193454        1.71810501        1.81362892
 C           -2.52009814        2.85339197        1.80060811
 C           -3.72940752        1.36268204        0.43772603
 C           -0.94397605        3.45496822        0.02479751
 C           -2.24886781        3.18711658        0.42331349
 C           -3.05918212        2.32279738       -0.42016717
 C           -0.72906664        3.54660345       -1.34915922
 C            1.66567236        3.17167331       -1.04100003
 C            2.54849790        2.05520213       -1.35259981
 C            0.61433872        3.46371083       -1.89261808
 C            2.47226007       -0.19269139       -2.22428491
 C            2.21570456        1.17317836       -2.37395484
 C            1.95580042       -2.47365994       -2.98115568
 C            2.06073560       -1.05366196       -3.24136556
 C            0.09377853       -3.73202825       -2.30860336
 C           -1.10583552       -3.31932341       -1.61053949
 C            0.60873786       -2.88438969       -3.35777130
 C           -2.78967122       -1.72036249       -1.15044742
 C           -3.23862591       -0.34620845       -1.23679166
 C           -1.79465292       -2.17382081       -2.00556497
 C           -2.52993736        1.92738063       -1.64732659
 C           -1.61395475        2.79785049       -2.22748148
 C           -2.49701839        0.56294100       -1.98235721
 C            0.53208992        2.77486249       -3.16801508
 C            1.35890170        1.60199295       -3.38770895
 C           -0.85132659        2.37022602       -3.37526964
 C            0.89372260       -0.69621289       -4.02636614
 C           -0.11894375       -1.67825244       -3.69454146
 C           -1.21365270       -1.28076084       -2.92020576
 C           -1.57529856        0.07478195       -2.91898110
 C            0.51912779        0.63136847       -4.06478194
 C           -0.84756187        0.96390730       -3.70947084
