   70
C70 / DATE: 7/ 1/2024 / Origin: Program Fullerene / C70 from database
 C            1.46518654       -0.09547195        4.91279787
 C            0.66490095       -1.29019297        4.75938482
 C            1.35557540       -2.16916187        3.82916934
 C            2.56613600       -0.18934100        3.96945993
 C            2.36978860       -1.37025901        3.16064435
 C            2.63725050        1.07289478        3.28656224
 C            0.64236914        1.03304555        4.50788004
 C            1.42967683        1.82236962        3.60019200
 C           -0.68914485       -0.87268449        4.43687749
 C           -0.61835171        0.52066429        4.02454991
 C           -1.46719764       -1.74233708        3.69451997
 C            0.58596987       -3.03225644        3.07009862
 C           -0.85826025       -2.98139806        3.23427668
 C            0.84781182       -3.13429762        1.64478438
 C            2.33921787       -1.23405752        1.76893251
 C            1.64511243       -2.17948862        1.00662540
 C            3.03938301        1.09368974        1.96128856
 C            2.79732012       -0.04798899        1.16822520
 C            2.91082023        2.33549897        1.36548656
 C            0.80089630        2.45653125        2.53607311
 C            1.67275810        3.04844464        1.63539825
 C           -1.05283847        0.88506432        2.74613819
 C           -0.40285763        1.91603395        2.04157195
 C           -2.24110328       -1.21350600        2.58607912
 C           -1.97823865        0.06851495        2.09195221
 C           -1.45865777       -3.32183073        1.95972659
 C           -0.39152408       -3.54782603        1.00861185
 C           -2.43022311       -2.29901650        1.63973009
 C           -0.60285307       -3.15388882       -0.30197698
 C            1.48321798       -1.99117327       -0.36822032
 C            0.50002534       -2.73428059       -1.02812608
 C            2.73526558        0.07691491       -0.23163862
 C            2.01927515       -0.85671448       -0.98368627
 C            3.20413959        2.46402774       -0.03575817
 C            3.11893591        1.27177083       -0.84208864
 C            1.17012218        3.53317330        0.37774549
 C            2.25945407        3.42137518       -0.57563198
 C           -0.82119219        2.22751266        0.73392221
 C           -0.10438662        3.16370721       -0.02761434
 C           -2.37575653        0.36673277        0.78851948
 C           -1.86398091        1.49601299        0.14270661
 C           -2.59201002       -1.95804464        0.30928104
 C           -1.85310869       -2.64164832       -0.65953812
 C           -2.95854666       -0.65265276        0.03321047
 C           -2.06629263       -2.30456908       -2.00025049
 C            0.33565782       -2.59040928       -2.39445525
 C           -1.02282143       -2.53070371       -2.90436368
 C            1.73333238       -0.59470193       -2.32940728
 C            1.09663516       -1.57113485       -3.08466531
 C            2.49813195        1.66279891       -2.09741571
 C            1.93850159        2.99680731       -1.91929192
 C            1.76078791        0.71929321       -2.80184019
 C           -0.41572482        3.34232409       -1.37136816
 C            0.64781141        3.22190545       -2.36452952
 C           -2.30185824        1.79969824       -1.15444344
 C           -1.59977142        2.72017305       -1.92205577
 C           -3.39279324       -0.38673780       -1.24950603
 C           -3.04684039       -1.34664153       -2.28229053
 C           -3.18217448        0.93389312       -1.79844632
 C           -3.05963688       -0.63534886       -3.54867459
 C           -3.11616867        0.78762038       -3.24622773
 C           -0.96804998       -1.83052659       -4.17640706
 C            0.32807277       -1.17270140       -4.25112302
 C           -1.98710796       -0.85255309       -4.49559486
 C            0.76196521        1.16223637       -3.67682925
 C            0.13776405        2.38033761       -3.42386348
 C           -1.30705118        2.41962165       -3.31723260
 C           -2.04358657        1.44288041       -3.97025234
 C            0.09736042        0.23971338       -4.47675176
 C           -1.32652016        0.42226302       -4.72085671
