   70
C70 / DATE: 7/ 1/2024 / Origin: Program Fullerene / C70 from database
 C            1.17348508        0.26186239        4.75063043
 C            2.43332113        0.05190069        4.06910457
 C            2.51055812       -1.35809490        3.74084649
 C            0.36953863       -0.94245612        4.57565149
 C            1.16670155       -1.90139464        3.84006379
 C           -0.91219724       -0.54408823        4.03023563
 C            0.35994619        1.38870961        4.35113175
 C           -0.99024659        0.89472070        4.15108266
 C            0.71895859        2.13108435        3.15365383
 C            2.71076567        0.79183675        2.84773008
 C            1.77813264        1.70188926        2.35142211
 C            3.20317527       -1.47331145        2.47140781
 C            3.35323580       -0.12911489        1.92798132
 C            2.81341717       -2.48837680        1.61132890
 C            0.62252755       -2.52941916        2.72269247
 C            1.50270694       -3.09310665        1.79946359
 C           -1.36094708       -1.13161063        2.85060207
 C           -0.69365581       -2.24716308        2.33450006
 C           -2.27351247       -0.43604285        2.04620217
 C           -1.55427452        1.63288185        3.04338134
 C           -0.52961346        2.51316175        2.51804746
 C           -2.33512070        0.96299034        2.11875824
 C           -0.53300179        2.76004424        1.14945312
 C            1.72101334        1.94242123        0.97750287
 C            0.68087005        2.72362846        0.47151625
 C            3.19572230        0.06410382        0.55878277
 C            2.52906163        1.20581671        0.10127267
 C            2.99447506       -2.29437822        0.18652995
 C            3.33378727       -1.03316579       -0.29290919
 C            1.01837348       -3.52177015        0.49771655
 C            1.95248300       -3.03717730       -0.50346825
 C           -1.22814552       -2.89589158        1.22566602
 C           -0.33744189       -3.47523752        0.23384872
 C           -2.87838494       -1.09043886        0.96348027
 C           -2.34134495       -2.29424021        0.51444504
 C           -3.65788650       -0.35266739        0.07076874
 C           -2.66772075        1.66082967        0.97096269
 C           -1.71014737        2.52931336        0.42811524
 C           -3.62944674        1.09351118        0.15827219
 C           -1.74355708        2.86084373       -0.93271604
 C            0.70224932        3.10204885       -0.86081286
 C           -0.55917577        3.22832175       -1.57164433
 C            2.48411561        1.46520131       -1.27142615
 C            1.66130488        2.48162415       -1.75437291
 C            3.23352938       -0.82863922       -1.66201788
 C            2.98425786        0.51140338       -2.15281275
 C            1.49152672       -2.53713740       -1.71920684
 C            2.37212733       -1.72112154       -2.42110413
 C           -0.78405427       -3.03590350       -1.07589900
 C           -2.11025774       -2.47756445       -0.91312073
 C            0.11011339       -2.41616520       -1.94150947
 C           -3.59362616       -0.68211818       -1.34307784
 C           -2.55481816       -1.49607167       -1.78918198
 C           -3.84765806        1.63336565       -1.16491925
 C           -2.86052357        2.54290864       -1.70339921
 C           -3.95933524        0.51016352       -2.08147315
 C           -2.68164893        2.18539544       -3.09979456
 C           -3.21379568        0.84198141       -3.27341732
 C           -0.33155545        2.84384541       -2.95768480
 C            1.03514077        2.36010132       -3.06585398
 C           -1.34229173        2.19934949       -3.66086931
 C            2.39076921        0.36829611       -3.47121522
 C            1.90517020       -0.99948186       -3.58174749
 C            1.30442988        1.24919733       -3.85449630
 C           -0.38534459       -1.51810457       -2.89593778
 C           -1.70511448       -1.05176400       -2.81407075
 C           -2.10371623       -0.00670600       -3.65330433
 C           -1.09501749        0.87441858       -4.21208812
 C            0.48236989       -0.93443852       -3.81805702
 C            0.20521802        0.40519010       -4.30064244
