   70
C70 / DATE: 7/ 1/2024 / Origin: Program Fullerene / C70 from database
 C            1.56819561        0.07672803        4.42515444
 C            0.77349130       -1.11300544        4.18599972
 C            1.54033112       -1.98662044        3.32386116
 C            2.67942805        0.06052941        3.48823896
 C            2.68666224       -1.22887973        2.83719922
 C            2.58536099        1.24223164        2.65841606
 C            0.74340773        1.22352427        4.10363275
 C            1.46711371        2.03175854        3.14375601
 C           -0.53875659       -0.70106474        3.73069954
 C           -0.57449206        0.74956231        3.72363297
 C           -1.10046630       -1.38669954        2.66321572
 C            0.85688938       -2.78520963        2.41328673
 C           -0.51871722       -2.58556668        2.24279765
 C            1.59467934       -3.29653698        1.35104543
 C            2.99395653       -1.30202136        1.48239399
 C            2.69475873       -2.49987028        0.83706820
 C            2.75947516        1.11972509        1.28005078
 C            3.10551053       -0.12264629        0.72882111
 C            2.25035617        2.13139043        0.45342298
 C            0.72869579        2.73039368        2.20476075
 C            1.35005551        3.05383206        1.00593987
 C           -1.21272414        1.39963178        2.67387845
 C           -0.66039097        2.59138780        2.20943376
 C           -1.99607166       -0.72604624        1.82004307
 C           -2.06071797        0.67655247        1.82952962
 C           -2.69902082       -1.46535878        0.86594818
 C           -1.20721366       -3.36439800        1.31941144
 C           -2.39579196       -2.81420326        0.69045837
 C            0.90981084       -3.89936442        0.22334404
 C           -0.46083017       -4.08737896        0.30001886
 C            2.65325922       -2.56314660       -0.61288107
 C            1.48140545       -3.33479073       -0.99206948
 C            3.31877398       -0.21194399       -0.64271430
 C            2.98995340       -1.44073563       -1.34538235
 C            2.44914224        2.06706546       -0.93350438
 C            2.93634299        0.89596851       -1.49701757
 C            1.77033208        2.93912957       -1.77678827
 C            0.73489630        4.00927425        0.20826859
 C            0.99062806        4.01835603       -1.21286722
 C           -1.39802790        3.34828879        1.31107123
 C           -0.68583804        4.23175096        0.40070022
 C           -2.76372449        1.35934915        0.82809409
 C           -2.45131615        2.69158173        0.55810546
 C           -3.42775930       -0.80641477       -0.11797635
 C           -3.41152234        0.63983202       -0.16890799
 C           -3.40207637       -1.29776487       -1.48923432
 C           -2.49575899       -3.39499992       -0.63722931
 C           -1.23141202       -4.04684161       -0.92793997
 C           -2.81437966       -2.52676800       -1.75574950
 C            0.63750996       -2.87602418       -2.00507022
 C           -0.65624978       -3.39112628       -2.08860686
 C           -1.70953092       -2.60250586       -2.70211905
 C            2.19253056       -1.09025292       -2.50670344
 C            2.26914441        0.35230517       -2.67255127
 C            0.98845101       -1.74484241       -2.75099823
 C            1.02064083        2.38782898       -2.89469226
 C            1.19385338        1.04573626       -3.22837194
 C           -0.29325930        4.04902061       -1.89852055
 C           -1.32913724        4.15326398       -0.89947401
 C           -2.32842499        3.10818578       -0.83108250
 C           -0.32721569        2.92612051       -2.81213463
 C           -3.21993567        1.03778750       -1.55617481
 C           -3.12990661       -0.16585011       -2.35986543
 C           -2.40649635        2.13551573       -1.82678892
 C           -1.40335582        2.04040112       -2.80935641
 C           -1.36200142       -1.48460738       -3.44592971
 C            0.03838783       -1.11079342       -3.54629489
 C            0.10166188        0.33190445       -3.72299054
 C           -2.14059182       -0.26126517       -3.32425340
 C           -1.24197792        0.85963053       -3.52945828
