   70
C70 / DATE: 7/ 1/2024 / Origin: Program Fullerene / C70 from database
 C            1.41663063        0.06780659        4.95204261
 C            0.63296414       -1.10526755        4.61060353
 C            1.51555266       -2.02858888        3.93970959
 C            2.66640348       -0.00883617        4.21133369
 C            2.74313167       -1.31673679        3.60672834
 C            2.73053119        1.14557123        3.34354170
 C            0.69448499        1.23488823        4.47659452
 C            1.58989350        1.99658703        3.64185500
 C           -0.55901276       -0.66227555        3.90869099
 C           -0.54325489        0.79064143        3.88605141
 C           -0.98412075       -1.33646883        2.75933833
 C            1.04586916       -2.64750542        2.72185644
 C           -0.26495065       -2.44534707        2.28898007
 C            2.92296410       -1.40941448        2.16557248
 C            2.09722839       -2.51257811        1.73560576
 C            3.09665660        0.99751256        2.00478324
 C            2.94696275       -0.25379969        1.38514148
 C            2.98894600        2.14114386        1.22805625
 C            1.06523394        2.72795080        2.58448715
 C            1.99479284        3.12156129        1.63429195
 C           -0.98810528        1.41854649        2.73320890
 C           -0.25549728        2.47554786        2.16331756
 C           -1.83592443       -0.66013250        1.87744885
 C           -1.90355460        0.73479295        1.94738435
 C           -2.33129494       -1.33224687        0.75401010
 C           -0.56775495       -2.92912913        1.01833407
 C           -1.78770524       -2.58338208        0.44426896
 C            1.70092050       -2.57942161        0.41503052
 C            0.50509889       -3.23135516        0.17510790
 C            2.52710953       -0.33876226        0.04452560
 C            2.06021035       -1.55745290       -0.46702034
 C            2.89491023        2.01909449       -0.20986331
 C            2.50505983        0.80283839       -0.75999418
 C            1.54160203        3.80682998        0.45297970
 C            2.25639754        3.23027553       -0.67294002
 C           -0.73555493        3.06454597        0.97683612
 C            0.12977716        3.76834806        0.14259520
 C           -2.57755570        1.44613103        0.97619496
 C           -1.95538454        2.64476242        0.44813981
 C           -3.12456649       -0.64440777       -0.17882489
 C           -3.20801486        0.73929956       -0.11500676
 C           -3.45593805       -1.24013422       -1.38940931
 C           -2.16798212       -3.24996346       -0.71631298
 C           -3.09848182       -2.61928885       -1.62506200
 C            0.24944325       -3.59156791       -1.13273935
 C           -1.12151132       -3.85581441       -1.51517559
 C            1.55859222       -1.62019324       -1.77559030
 C            0.85416153       -2.76957445       -2.16399253
 C            1.82147106        0.78099393       -1.98490313
 C            1.44999651       -0.45245711       -2.53872412
 C            1.32012650        3.12025881       -1.75957060
 C            0.02631333        3.59822668       -1.29722689
 C            1.33311928        1.98003149       -2.54101266
 C           -2.16099485        2.65285569       -0.99659987
 C           -3.00595138        1.51316595       -1.32952216
 C           -1.11920047        3.02147170       -1.84664337
 C           -3.22581372       -0.49639310       -2.61945228
 C           -2.83131882        0.84167986       -2.53665180
 C           -2.55501407       -2.71995741       -2.97183145
 C           -1.28822837       -3.41936620       -2.88833037
 C           -0.07206705       -2.72584533       -3.28423901
 C           -2.57860710       -1.39647518       -3.56476690
 C            0.77395462       -0.49042118       -3.76094843
 C           -0.16386102       -1.56294963       -4.03083586
 C           -1.46939241       -0.95363665       -4.27253393
 C            0.32350772        1.91921184       -3.48434222
 C           -0.99475074        2.38652585       -3.08383202
 C           -1.95165166        1.36629609       -3.48132547
 C            0.16446650        0.71870443       -4.26155640
 C           -1.26146735        0.47304907       -4.39786662
