   70
C70 / DATE: 7/ 1/2024 / Origin: Program Fullerene / C70 from database
 C            1.35480662       -0.11858370        4.49819151
 C            2.59790203       -0.29353826        3.77160310
 C            2.56651208       -1.61096912        3.16542025
 C            0.50859865       -1.27178806        4.22093332
 C            1.22654257       -2.14281990        3.31859495
 C           -0.79142546       -0.78173825        3.81732861
 C            0.56255025        1.07311817        4.25939470
 C           -0.81606474        0.64441407        4.08808771
 C            1.07082101        2.08671321        3.45156224
 C            2.95394674        0.66059169        2.73474753
 C            2.25504085        1.85282695        2.63131372
 C            3.09446174       -1.49461356        1.81901237
 C            3.26632314       -0.08352146        1.52514823
 C            2.54028397       -2.28595541        0.82644418
 C            0.59256655       -2.61915043        2.17822298
 C            1.39857731       -3.03409112        1.12606248
 C           -1.36972600       -1.25585246        2.64161561
 C           -0.73999404       -2.27469198        1.90774756
 C           -2.41730126       -0.52793723        2.07325122
 C           -1.69287077        1.43858657        3.36467737
 C           -2.61344918        0.79966017        2.43937288
 C            0.15604126        2.91050543        2.67909732
 C           -1.20669821        2.65262157        2.72564224
 C            2.00012558        2.40716295        1.31503810
 C            0.77847102        3.18619236        1.39492995
 C            2.85247648        0.39110627        0.27626582
 C            2.23993251        1.64517154        0.17083966
 C            2.73887226       -1.89197583       -0.48961267
 C            2.73664436       -0.51963361       -0.78034524
 C            2.45583277       -2.82388302       -1.47831835
 C            0.80687559       -3.77576802        0.11616299
 C            1.47022891       -3.84156530       -1.17482748
 C           -1.34584086       -2.77087688        0.74285394
 C           -0.61246320       -3.58453019       -0.12204794
 C           -3.02806794       -0.98879783        0.91821218
 C           -2.47828564       -2.14071313        0.23467925
 C           -3.46871602       -0.03260998       -0.08874410
 C           -2.95439053        1.77344199        1.41642143
 C           -2.00334577        2.86756624        1.53133824
 C           -3.32521575        1.33636640        0.14415489
 C           -0.00839951        3.28828610        0.25579326
 C           -1.40364063        3.34151463        0.37212171
 C            1.58684858        1.99466815       -1.01326565
 C            0.56612488        2.95555388       -0.97003071
 C            2.33210719       -0.05974939       -2.03860045
 C            1.78732339        1.22034617       -2.16078853
 C            2.21949088       -2.38021949       -2.83143444
 C            2.17218732       -0.95820707       -3.09444156
 C            0.44771966       -3.78333017       -2.20380688
 C           -0.79564285       -3.42294143       -1.55733550
 C            0.94386305       -2.93975185       -3.26353452
 C           -2.57377290       -1.89929784       -1.19864088
 C           -3.13648211       -0.58086997       -1.39681655
 C           -1.55037213       -2.34607968       -2.02134217
 C           -2.60906682        0.25560231       -2.36908591
 C           -3.10672008        2.18747911       -0.93996620
 C           -2.17184455        3.29388520       -0.78498113
 C           -2.88277453        1.61819353       -2.25900388
 C           -0.09139591        3.33808593       -2.13095163
 C           -1.52590210        3.51025360       -2.06487822
 C           -2.11804020        2.58630228       -3.01702548
 C            1.15299605        1.56391867       -3.35504629
 C            0.19775229        2.65286936       -3.36952177
 C           -1.05923054        2.11152622       -3.87306298
 C            1.06573739       -0.76564728       -4.01152739
 C            0.12868243       -1.82717892       -3.70507308
 C           -1.05179554       -1.50113791       -3.02741182
 C           -1.57034935       -0.20680844       -3.19307503
 C            0.56200343        0.50865865       -4.15488398
 C           -0.86798565        0.68363480       -4.01285512
