   70
C70 / DATE: 7/ 1/2024 / Origin: Program Fullerene / C70 from database
 C            1.70986346        0.07281026        4.69484507
 C            0.87806104       -1.11705619        4.66201747
 C            1.40519755       -1.99884987        3.63766998
 C            2.64457248       -0.00875168        3.58505454
 C            2.51851178       -1.31660373        2.99013107
 C            2.43590635        1.13703054        2.73278193
 C            0.84922545        1.21730725        4.46235490
 C            1.33809104        1.91206244        3.28460676
 C           -0.50596839       -0.69749672        4.57012403
 C           -0.52600909        0.75620546        4.47198216
 C           -1.37333327       -1.45243348        3.79107119
 C            0.52586754       -2.73634435        2.84475340
 C           -0.85139425       -2.55476511        2.98985618
 C            1.01693220       -3.25427467        1.65035342
 C            2.65246746       -1.44763860        1.61283436
 C            2.19290118       -2.63336019        1.06539415
 C            2.48248451        0.96697409        1.35436228
 C            2.70325160       -0.30141606        0.79988271
 C            1.88899942        1.94204736        0.56566795
 C            0.42036519        2.46771063        2.39862091
 C            0.81200844        2.67127538        1.07784578
 C           -1.42950284        1.37644290        3.61826725
 C           -0.94395522        2.37299863        2.67538889
 C           -2.41492429       -0.79332339        3.01778964
 C           -2.44310029        0.58855200        2.93276406
 C           -1.73020670       -2.71069442        1.83953155
 C           -2.64523065       -1.57960651        1.82122656
 C            0.10621613       -3.57987898        0.56241498
 C           -1.22479348       -3.18595953        0.63275418
 C            2.09973194       -2.76105788       -0.36653685
 C            0.84415267       -3.42209854       -0.68245432
 C            2.65830106       -0.43758062       -0.59895724
 C            2.50789213       -1.71210760       -1.17081228
 C            2.09762167        1.91034141       -0.80754399
 C            2.50650851        0.71120846       -1.39574875
 C            1.51766226        2.91270484       -1.58523450
 C           -0.11353478        3.20582547        0.18915010
 C            0.34178798        3.58720021       -1.06628091
 C           -1.89043827        2.41588840        1.57272428
 C           -2.70351044        1.21638478        1.64668354
 C           -1.44679109        2.82276091        0.32544843
 C           -2.91911030       -0.95779957        0.60543666
 C           -2.85683613        0.43802409        0.49723330
 C           -1.90227793       -2.86663904       -0.54055754
 C           -2.81845079       -1.73644739       -0.53837767
 C            0.17914993       -3.05904460       -1.85176361
 C           -1.19972966       -2.86993874       -1.81646207
 C            2.18793865       -1.82644483       -2.51580608
 C            0.92166852       -2.45346369       -2.86488262
 C            2.54085537        0.60618853       -2.78572256
 C            2.38797005       -0.69629101       -3.38980212
 C            1.33197058        2.71788226       -3.01359925
 C            1.77587277        1.53842247       -3.59448532
 C           -0.62149211        3.69080535       -2.14704372
 C            0.02518679        3.24627857       -3.36899756
 C           -2.11780853        2.34056341       -0.79371767
 C           -2.65052896        1.04242671       -0.75344964
 C           -1.86938387        2.96561504       -2.00954471
 C           -2.75072935       -1.10266638       -1.83577031
 C           -1.81499414       -1.85378937       -2.65864107
 C           -2.75777015        0.27990956       -1.92623108
 C            0.26195738       -1.59048782       -3.83188943
 C            1.25386876       -0.63553757       -4.29793594
 C            0.87583464        0.75521024       -4.43621591
 C           -1.04754255       -1.17290243       -3.60009368
 C           -0.91062066        2.39248567       -4.07439214
 C           -2.09151031        2.23823988       -3.23785880
 C           -2.39860776        0.82950110       -3.15123849
 C           -0.47576942        1.06991509       -4.48321307
 C           -1.45099883        0.10755116       -3.98776275
