   70
C70 / DATE: 7/ 1/2024 / Origin: Program Fullerene / C70 from database
 C            1.55964192        0.01259089        4.63935392
 C            0.74671657       -1.18351087        4.56349445
 C            1.18943673       -1.96486029        3.42089397
 C            2.53460980       -0.05439579        3.56859447
 C            2.28716252       -1.25282133        2.79215355
 C            2.48922081        1.20967619        2.87117687
 C            0.69098686        1.14724668        4.36677318
 C            1.26647306        1.88219229        3.26451590
 C           -0.63860278       -0.76420700        4.59960508
 C           -0.65720449        0.64626616        4.22594052
 C           -1.57199967       -1.60452233        4.01719557
 C            0.22280351       -2.55309328        2.61561541
 C           -1.09170120       -2.62106691        3.08943706
 C            0.46806087       -2.69408582        1.24805908
 C            2.32211429       -1.14515337        1.40482629
 C            1.46547085       -1.92764287        0.63024241
 C            2.78185543        1.21890323        1.51957569
 C            2.88207130        0.00065325        0.83719700
 C            2.35022252        2.32160105        0.79730822
 C            0.44336244        2.35132960        2.24456716
 C            1.08023900        2.82873955        1.09590937
 C           -1.43023032        1.05440448        3.13658562
 C           -0.87266052        1.86620540        2.13430004
 C           -2.73474901       -0.99600047        3.40362466
 C           -2.59955402        0.34571394        2.86535137
 C           -2.17672226       -2.91321612        2.16817809
 C           -3.17167208       -1.86778916        2.32904124
 C           -0.47524197       -3.35200985        0.46976803
 C           -1.86844341       -3.32838505        0.88316282
 C           -0.45217117       -3.19519301       -0.97300552
 C            1.48331998       -1.76997832       -0.76121839
 C            0.53019131       -2.40955880       -1.56520087
 C            3.06939650        0.04600623       -0.54423677
 C            2.41155580       -0.89963953       -1.34262571
 C            2.88697326        2.47211848       -0.47173376
 C            3.42863836        1.28025986       -1.08898222
 C            2.14990881        3.18908435       -1.49429336
 C            0.29363093        3.36974384        0.08627044
 C            0.82409847        3.50908396       -1.25963537
 C           -1.57243675        2.04741819        0.93390997
 C           -1.08386432        2.93535463       -0.01417014
 C           -3.13523420        0.33241613        1.51481158
 C           -3.49421364       -1.03438688        1.18476812
 C           -2.52766968        1.11324372        0.54316562
 C           -2.61119760       -2.76097092       -0.22691960
 C           -1.82959111       -3.04600289       -1.41570435
 C           -3.19733589       -1.50079979       -0.08819494
 C           -2.07246253       -2.29370367       -2.55117235
 C            0.34058217       -1.99276608       -2.88607840
 C           -0.95252570       -1.96294508       -3.40995756
 C            2.47585411       -0.81237882       -2.73344395
 C            1.33682574       -1.25249601       -3.51517921
 C            3.40358025        1.48699154       -2.51969943
 C            2.52332623        2.61964268       -2.77621972
 C            2.97983268        0.39407335       -3.36268072
 C            0.96041222       -0.15658467       -4.40429372
 C            1.48162835        2.16616384       -3.67893114
 C            1.93224301        0.90079570       -4.23103505
 C           -0.20193859        3.06675491       -2.19431416
 C           -1.37879163        2.70334080       -1.41782281
 C            0.14004307        2.31145507       -3.31917015
 C           -2.61015119        0.72623388       -0.79898275
 C           -3.03506360       -0.57443250       -1.11609470
 C           -2.84449372       -1.07320590       -2.39923094
 C           -2.11703732        1.58603581       -1.79122580
 C           -1.36626802       -0.81169851       -4.18797541
 C           -0.37583883        0.19971019       -4.48961283
 C           -0.80940753        1.44367922       -3.86272112
 C           -2.45257738       -0.17484429       -3.46195339
 C           -2.02343758        1.15921710       -3.11165646
