   70
C70 / DATE: 7/ 1/2024 / Origin: Program Fullerene / C70 from database
 C            1.53672321        0.09824246        4.68928608
 C            0.75786221       -1.11290033        4.51525329
 C            1.44788268       -1.96047226        3.55755141
 C            2.69120236        0.00919124        3.81247544
 C            2.72104350       -1.32447095        3.24946097
 C            2.65610113        1.13975367        2.90187691
 C            0.72030042        1.20888996        4.23362702
 C            1.45543946        1.90151456        3.20086028
 C           -0.60613717       -0.71976946        4.22340543
 C           -0.59454941        0.70035619        3.90201067
 C           -1.36186580       -1.56094057        3.42794814
 C            0.70508998       -2.56278375        2.53752616
 C           -0.68319752       -2.59201494        2.65066435
 C            1.29999408       -2.80156347        1.29452871
 C            3.24627451       -1.47980525        1.98001621
 C            2.63485071       -2.44914519        1.09815111
 C            3.00696363        0.94572166        1.56163558
 C            3.51577643       -0.29538521        1.17068545
 C            2.46582243        1.80280419        0.59259092
 C            0.75934380        2.42966099        2.13041740
 C            1.49177843        2.72220610        0.99606533
 C           -1.20375736        1.13970971        2.72402210
 C           -0.60657682        2.16159238        1.97819834
 C           -2.34835974       -0.97142828        2.54957939
 C           -2.19088594        0.35101103        2.13255036
 C           -1.49484538       -2.84607026        1.47224272
 C           -2.66403525       -1.98758629        1.56727585
 C            0.51784463       -3.14608698        0.18460614
 C           -0.87656223       -3.01751270        0.23825081
 C            1.15122504       -3.33881569       -1.04228749
 C            3.09184447       -2.12019460       -0.23657124
 C            3.41795384       -0.70286259       -0.22237465
 C            2.38854088       -2.62892910       -1.31098722
 C            2.58728967        1.47527087       -0.76544244
 C            2.80448380        0.15074380       -1.13219539
 C            2.12374607        2.36271451       -1.72969154
 C            0.89208595        3.54659910        0.06306298
 C            1.38218508        3.52704454       -1.29578682
 C           -1.24707275        2.63682703        0.82841151
 C           -0.55840143        3.54714499        0.02018089
 C           -2.75915965        0.74868549        0.92126575
 C           -2.33319456        1.92847283        0.30363623
 C           -3.29456646       -1.59051854        0.40466351
 C           -3.51881452       -0.17287683        0.19885759
 C           -1.62332141       -2.80792819       -0.93028761
 C           -2.83678648       -2.13063034       -0.86256716
 C            0.37233206       -3.29392317       -2.26156616
 C           -1.02726415       -2.94101868       -2.17643604
 C            2.12460797       -1.75693567       -2.43847349
 C            2.14586112       -0.37832705       -2.24819193
 C            1.01640430       -2.34295874       -3.15696975
 C            1.46142362        1.82696760       -2.90746836
 C            1.32645172        0.44590930       -3.02977329
 C            0.24534258        3.69982971       -2.18011757
 C           -0.95660474        3.75607720       -1.36081953
 C            0.34209536        2.69907958       -3.22865455
 C           -2.86405991        2.28398386       -0.93958941
 C           -2.11375891        3.15549652       -1.82789355
 C           -3.71729149        0.01547426       -1.22426387
 C           -3.16476885       -1.15760546       -1.89612507
 C           -3.50929317        1.27232177       -1.76208921
 C           -1.29278364       -1.93677793       -3.19488970
 C           -0.00571108       -1.46130640       -3.67647427
 C            0.22165705       -0.09037028       -3.70969317
 C           -2.31561572       -1.00898522       -2.99731088
 C           -0.82528971        2.14460581       -3.72892259
 C           -2.09843819        2.53719580       -3.14402521
 C           -2.95305451        1.36444547       -3.09564426
 C           -0.87812054        0.71680893       -3.98420794
 C           -2.20167972        0.23654728       -3.61504966
