54
Modified xyz file
 C            1.42468653       -0.14267787        4.42880160
 C            0.50910619       -1.26150301        4.52643475
 C            1.08787764       -2.37199330        3.78553477
 C            2.51169670       -0.53563095        3.54602026
 C            2.26815849       -1.88558422        3.09355041
 C            2.63347964        0.49044985        2.53913738
 C            0.71843476        0.95619152        3.78676627
 C            1.57891977        1.46962748        2.75175549
 C           -0.72322240       -0.87666765        3.85874646
 C           -0.59047250        0.49308287        3.38931402
 C            0.13153024       -2.76603109        2.77082724
 C           -1.02887389       -1.89888922        2.87934957
 C            2.08092891       -2.11093795        1.66531569
 C            0.81802396       -2.80453677        1.48547597
 C            2.89234782        0.13021078        1.22176977
 C            2.41393172       -1.10998676        0.75351984
 C            2.89844823        1.19491301        0.33523288
 C            1.00507775        2.01769563        1.60971927
 C            1.88619417        2.21780110        0.55666487
 C           -1.03747509        0.78844058        2.10102098
 C           -0.33352421        1.70597530        1.30342147
 C           -1.60663073       -1.50214304        1.68567080
 C           -1.85962925       -0.14455953        1.47183818
 C            0.05873202       -2.51337840        0.35293059
 C           -1.29139423       -2.25568556        0.56659138
 C            1.87675253       -1.19939333       -0.54073030
 C            0.67384681       -1.89093912       -0.74357477
 C            2.92976170        0.91405426       -1.07957404
 C            2.34426879       -0.33075961       -1.51814340
 C            1.36897900        2.61094523       -0.72852218
 C            2.20810749        1.98559791       -1.73206619
 C           -0.82940952        1.97678397        0.01569342
 C           -0.00291701        2.60342937       -0.93630017
 C           -2.45438428        0.19593515        0.25914681
 C           -2.02583498        1.36022917       -0.39175555
 C           -2.09249124       -2.05919034       -0.53645282
 C           -2.91559536       -0.87194492       -0.51065737
 C           -0.11378467       -1.63408574       -1.88249237
 C           -1.45412432       -2.02755386       -1.83091435
 C            1.51636117       -0.03077022       -2.67193420
 C            1.54567030        1.41641362       -2.88185527
 C            0.31661317       -0.71523184       -2.85913867
 C           -0.42694159        2.69427549       -2.26108901
 C            0.37225485        2.02845496       -3.28947865
 C           -2.60619711        1.71101988       -1.61515544
 C           -1.82057704        2.46586758       -2.56735811
 C           -3.33929015       -0.64923412       -1.87457302
 C           -2.43685782       -1.43055394       -2.71581503
 C           -3.33680372        0.70560028       -2.37119130
 C           -0.58258799       -0.19300811       -3.80037948
 C           -0.54128906        1.23232676       -4.07339613
 C           -1.86760168        1.77156138       -3.84410601
 C           -1.98014118       -0.57192818       -3.77698258
 C           -2.77213931        0.64791554       -3.70661375
