54
Modified xyz file
 C            1.30490073       -0.00537260        4.23502121
 C            0.55955629       -1.17741400        3.81357944
 C            1.46614047       -2.03633137        3.08935490
 C            2.57685031       -0.01515153        3.52782528
 C            2.67127182       -1.26747856        2.80820719
 C            2.67421143        1.22017683        2.77917646
 C            0.56717594        1.16905902        3.80059186
 C            1.48898473        2.01116631        3.07785331
 C           -0.63801311       -0.72525462        3.13516371
 C           -0.63616813        0.72643795        3.11423981
 C           -1.07323227       -1.38039595        1.99174900
 C            1.01774242       -2.59571079        1.82774013
 C           -0.28881843       -2.37912503        1.39093421
 C            2.83245618       -1.24929534        1.36234731
 C            2.09248695       -2.39806448        0.87687629
 C            2.80740594        1.17146975        1.32862606
 C            2.75158987       -0.04471387        0.65396728
 C            1.03533977        2.57926894        1.82954784
 C            2.03256054        2.27984997        0.81669110
 C           -1.04559219        1.37208957        1.93987372
 C           -0.30354101        2.46541507        1.46263344
 C           -2.00629592       -0.72009618        1.20592915
 C           -1.88681639        0.67108927        1.05839641
 C           -2.65505127       -1.47241828        0.24104525
 C           -0.60284453       -2.76582604        0.08358658
 C           -1.90266497       -2.55047593       -0.37069164
 C            1.77704087       -2.45135048       -0.46825588
 C            0.43573058       -2.86446300       -0.84996169
 C            2.30398809       -0.06361669       -0.67118286
 C            2.09279633       -1.29775681       -1.28971695
 C            1.59565904        2.25882330       -0.50132726
 C            1.82918737        1.11184924       -1.27657125
 C           -0.61354443        2.98331276        0.21259305
 C            0.46171025        3.02368458       -0.76296542
 C           -2.36370409        1.30777514       -0.09752108
 C           -1.78692578        2.50868173       -0.48837574
 C           -3.40559500       -0.79774065       -0.79111197
 C           -3.12336545        0.60010562       -1.03052975
 C           -2.15853550       -2.50701212       -1.79978156
 C           -3.20039410       -1.52259510       -2.03370402
 C            0.23843884       -2.39412285       -2.21523566
 C            1.25719428       -1.38530664       -2.47480848
 C           -1.05321412       -2.21814738       -2.69291819
 C            1.33352560        1.05548356       -2.58518205
 C            0.92370180       -0.22101340       -3.14701084
 C           -0.13355640        3.00326867       -2.08011366
 C           -1.55634909        2.75360481       -1.90400416
 C            0.37493496        2.04979236       -3.03885988
 C           -2.84321087        0.75479993       -2.45447797
 C           -2.70516439       -0.57696715       -3.01625964
 C           -1.38993626       -1.01981186       -3.44932831
 C           -0.41285533       -0.06173847       -3.70351160
 C           -1.95345610        1.73967895       -2.86231618
 C           -0.76373628        1.34788386       -3.60782631
