54
Modified xyz file
 C            1.29016609       -0.07227928        3.61925536
 C            2.53617838       -0.36654384        2.93619419
 C            2.42203483       -1.69729374        2.35668296
 C            0.45537572       -1.25798361        3.53788108
 C            1.06375239       -2.16238874        2.57939323
 C           -0.90771659       -0.82839370        3.30355887
 C            0.49131102        1.05954883        3.18164529
 C           -0.87612933        0.59979265        3.00597107
 C            1.02120286        1.96771149        2.27689464
 C            2.99814867        0.53023951        1.89243593
 C            2.31772113        1.72132737        1.65469453
 C            2.93336502       -1.63985216        1.00045994
 C            3.42527068       -0.28945637        0.76962496
 C            2.23884028       -2.29838355       -0.00594996
 C            0.30092042       -2.61637785        1.50198987
 C            0.90666096       -2.82550794        0.26216176
 C           -1.72049462       -1.64395341        2.53281429
 C           -1.09165808       -2.55186639        1.57832542
 C           -2.85609618       -1.03420940        1.87236001
 C           -1.65992317        1.10167592        1.96147023
 C           -2.79731353        0.38587159        1.58316710
 C            0.15185181        2.55926249        1.27688467
 C           -1.16055642        2.11448241        1.12895091
 C            2.27662541        2.26747634        0.30714344
 C            0.94727659        2.82270339        0.08764568
 C            3.40097585        0.24137037       -0.51581976
 C            2.92505553        1.60098461       -0.72398098
 C            2.24650638       -1.76006047       -1.35710731
 C            2.91169743       -0.56965067       -1.62010767
 C            0.12264928       -2.69736503       -0.95806201
 C            0.93701542       -2.00535188       -1.94643124
 C           -1.88124746       -2.52899744        0.35446897
 C           -3.06305463       -1.72676488        0.61408687
 C           -1.23955440       -2.42474025       -0.87878235
 C           -3.36950430        0.57363988        0.26312323
 C           -3.46175243       -0.74030226       -0.36938432
 C           -1.83111225        2.45092766       -0.04719387
 C           -2.98018487        1.67594887       -0.48380189
 C            0.33756902        2.74049574       -1.16438416
 C           -1.05284642        2.80456821       -1.22659202
 C            2.37517350        1.67503295       -2.06304704
 C            2.37559679        0.33005464       -2.62241694
 C            1.04517641        2.22930022       -2.25515102
 C            0.34297028       -1.06027595       -2.78219963
 C            1.05061544        0.08100781       -3.16455689
 C            0.36967799        1.36604108       -3.21259478
 C           -1.85889355       -1.74562294       -1.93093708
 C           -3.02196756       -0.90432908       -1.67578116
 C           -1.04031594       -1.08216387       -2.93568565
 C           -2.92887383        1.57444207       -1.93299197
 C           -1.73987631        2.27348683       -2.39156558
 C           -1.01495056        1.39383943       -3.29049309
 C           -2.93386074        0.25795269       -2.54040880
 C           -1.72949842        0.13092965       -3.34385733
