54
Modified xyz file
 C            1.50672368        0.02467306        3.98373950
 C            0.71421311       -1.16445412        3.72282461
 C            1.52938366       -2.05302844        2.92704120
 C            2.63048584        0.01024811        3.06119518
 C            2.70301979       -1.31008560        2.48518879
 C            2.48695574        1.14207679        2.16850963
 C            0.68433996        1.17645757        3.66158807
 C            1.36511431        1.94352930        2.63616938
 C           -0.56838215       -0.73759472        3.18758389
 C           -0.65316599        0.70293910        3.37806254
 C           -1.04913200       -1.30520124        2.00095202
 C            0.93618995       -2.65150560        1.75058518
 C           -0.40564385       -2.42861332        1.45732813
 C            2.77315989       -1.43250051        1.04109023
 C            1.89443337       -2.52695230        0.66838781
 C            2.66701289        0.98693599        0.79263479
 C            2.80426090       -0.29742288        0.23270295
 C            2.27192082        2.05606205       -0.01009568
 C            0.60405597        2.62350891        1.68804066
 C            1.22453494        2.93790106        0.48144934
 C           -1.41889813        1.43973571        2.49271239
 C           -0.79308347        2.52409750        1.74246138
 C           -1.98677777       -0.59334471        1.23714672
 C           -2.27384003        0.73204053        1.56243109
 C           -2.45801249       -1.11471092        0.02908273
 C           -0.85043784       -2.93918564        0.24536885
 C           -2.02668305       -2.37323764       -0.37839341
 C            1.40873740       -2.59630536       -0.63510568
 C            0.13565339       -3.13823905       -0.80805385
 C            2.59827325       -0.49157015       -1.13174535
 C            1.90338963       -1.69244611       -1.58046376
 C            2.07338862        1.87784752       -1.43702685
 C            2.18188223        0.61055174       -1.98035985
 C            0.43207765        3.36985138       -0.65396141
 C            0.96781552        2.72476118       -1.84269841
 C           -1.60167118        2.72769150        0.54354564
 C           -2.60209146        1.66839504        0.50437096
 C           -1.00112008        3.15512808       -0.63409176
 C           -3.13112517       -0.27821414       -0.86819279
 C           -3.02937436        1.16290064       -0.71430416
 C           -3.08236920       -0.54531548       -2.29563253
 C           -1.93841993       -2.69518636       -1.79477689
 C           -0.54600082       -2.99968376       -2.08142543
 C           -2.38420401       -1.72243748       -2.76951193
 C            1.11033376       -1.33209664       -2.75114573
 C            1.15005567        0.11769804       -2.88476417
 C           -0.06455518       -2.01642782       -3.03090040
 C           -1.21508127       -1.27457861       -3.51435310
 C           -0.14271993        2.13519423       -2.56786235
 C           -1.37133290        2.53710766       -1.89733027
 C           -2.47353990        1.69325435       -1.95218592
 C           -2.46599157        0.61102786       -2.92252637
 C           -0.03167410        0.84087591       -3.07515008
 C           -1.19208415        0.17784780       -3.47013555
