54
Modified xyz file
 C            1.62779807        0.03913671        3.65659841
 C            0.76883476       -1.12159007        3.50805176
 C            1.33636470       -1.96000783        2.47061914
 C            2.56584314        0.04063616        2.54609557
 C            2.42144414       -1.21576460        1.84602092
 C            2.37156988        1.26448357        1.79776056
 C            0.79815816        1.22014908        3.52289523
 C            1.42579135        2.08402773        2.54137832
 C           -0.59558888       -0.66031546        3.35019737
 C           -0.57083476        0.79242148        3.27977532
 C           -1.42738059       -1.36210516        2.49571578
 C            0.48692156       -2.69322198        1.64498898
 C           -0.89653203       -2.49080581        1.73832964
 C            1.02569662       -3.17151854        0.45335390
 C            2.51049669       -1.23394652        0.45899137
 C            2.08282896       -2.39775804       -0.17658792
 C            2.26304420        1.19470039        0.40873638
 C            2.50871734       -0.02355162       -0.25097104
 C            1.67249525        2.26654758       -0.27527831
 C            0.60227078        2.93742778        1.82829758
 C            0.90376058        3.18756920        0.43268496
 C           -1.30518069        1.46358364        2.29952347
 C           -0.83309146        2.71529094        1.89230487
 C           -2.32536177       -0.62966933        1.62167380
 C           -2.21409741        0.75266777        1.49640576
 C           -1.74718294       -2.65048046        0.56467307
 C           -2.54378140       -1.43634777        0.42802390
 C            0.14779371       -3.66365465       -0.59168953
 C           -1.24973099       -3.28089992       -0.56665356
 C            1.86007127       -2.41252239       -1.61199358
 C            0.70578250       -3.25826288       -1.87233905
 C            2.52877568       -0.06015684       -1.64395255
 C            2.03169964       -1.23819979       -2.33334406
 C            1.53664447        2.22215206       -1.65934630
 C            2.07514183        1.09458416       -2.38976977
 C            0.25197465        2.55587139       -2.25788833
 C           -0.31947648        3.69303586       -0.16977592
 C           -1.41123063        3.38222447        0.74260700
 C           -0.69335671        3.22863255       -1.49499901
 C           -2.78478841        1.34353267        0.36989903
 C           -2.43695518        2.69905310       -0.00721914
 C           -2.03368198        2.68032289       -1.40520966
 C           -2.67641919       -0.80826479       -0.81328333
 C           -2.89608608        0.56612421       -0.85376547
 C           -2.28405481        1.34474357       -1.92044385
 C           -1.58594283       -2.74719318       -1.87270607
 C           -0.37790963       -2.73967423       -2.68372238
 C           -2.19263511       -1.43118558       -1.96194922
 C            1.00233283       -0.79945700       -3.26963022
 C            1.05316391        0.64709259       -3.32563157
 C           -0.15564304        1.40536204       -3.05026705
 C           -1.34337111        0.73327648       -2.74597739
 C           -0.24039388       -1.41949139       -3.27208616
 C           -1.42470870       -0.64860420       -2.91912164
