54
Modified xyz file
 C            1.32011911        0.01113135        3.82327351
 C            2.45497576       -0.17398249        2.94457661
 C            2.38370215       -1.51944516        2.39715368
 C            0.46615276       -1.15753397        3.69675546
 C            1.17710891       -2.15067659        2.90753584
 C           -0.83837983       -0.70775889        3.23314260
 C            0.48786050        1.18154371        3.64036618
 C           -0.87033172        0.72887255        3.36331677
 C            0.83042154        2.14982710        2.61088552
 C            2.64790800        0.74292434        1.83497986
 C            1.90834011        1.92345764        1.74404740
 C            2.57614456       -1.43248512        0.95431502
 C            2.85646888       -0.04774312        0.63109266
 C            1.74850567       -2.17308234        0.11753858
 C            0.43722355       -2.93795198        2.03817910
 C            0.94967667       -3.15973032        0.70034714
 C           -1.38617354       -1.31662108        2.10712213
 C           -0.96645494       -2.61669810        1.84815783
 C           -1.90326193       -0.53307373        1.05458895
 C           -1.37036576        1.51226725        2.25697568
 C           -0.43890768        2.60793436        2.06788915
 C           -1.88318840        0.87321913        1.13216729
 C           -0.44276558        3.27103683        0.85257646
 C            1.93454458        2.60115020        0.52755581
 C            0.83025087        3.48159231        0.19140796
 C            2.43401996        0.47255575       -0.58517358
 C            2.27698856        1.85457885       -0.67485989
 C            1.42743160       -1.66840223       -1.15141090
 C            1.78575664       -0.35810603       -1.50508193
 C            0.60206820       -2.40712699       -2.00320273
 C           -0.15978447       -3.72351103       -0.04121350
 C           -1.37451525       -3.26775001        0.62499370
 C           -0.28656764       -3.40286998       -1.44375420
 C           -2.39071487       -1.15654872       -0.11022417
 C           -2.13252531       -2.50852279       -0.34094613
 C           -1.63735453       -2.90937253       -1.64468138
 C           -2.78188691       -0.37796338       -1.20107942
 C           -2.07410445        1.63845764       -0.01914363
 C           -1.38841026        2.84697331       -0.16821854
 C           -2.67528673        1.06469569       -1.12852128
 C            0.60918889        3.40059359       -1.24259705
 C            1.55059217        2.43794488       -1.79043420
 C           -0.81194936        3.19123069       -1.46008676
 C            1.33957243        0.18177007       -2.71464856
 C            1.13245082        1.61675130       -2.82726662
 C           -0.16731591       -1.71842094       -3.02177101
 C           -1.57819696       -1.90475554       -2.68665679
 C           -2.38924379       -0.78708659       -2.54632810
 C            0.27379953       -0.47617176       -3.45486722
 C           -2.32511336        1.55489111       -2.45181061
 C           -1.21233645        2.47892245       -2.58250918
 C           -0.19239064        1.82677388       -3.39228026
 C           -2.05663424        0.40627003       -3.29874238
 C           -0.70711190        0.53602538       -3.81343092
