54
Modified xyz file
 C            1.31770994        0.10706163        3.93513890
 C            2.49880942        0.03836896        3.09304678
 C            2.50208827       -1.26525618        2.45629792
 C            0.48254695       -1.04346387        3.62233642
 C            1.19702604       -1.87042681        2.66814952
 C           -0.83320283       -0.55649092        3.26098301
 C            0.48241221        1.29116795        3.88126737
 C           -0.86419075        0.87174737        3.52468605
 C            0.85391193        2.37614429        2.99165309
 C            2.70397841        1.03561692        2.05209919
 C            1.92448559        2.18462616        2.02219258
 C            2.96559380       -1.09372171        1.09154824
 C            2.98510053        0.33490929        0.80815489
 C            2.46180053       -1.95035052        0.12692637
 C            0.51435347       -2.37565510        1.56324991
 C            1.25965013       -2.71222136        0.43334366
 C           -1.41846803       -1.02227139        2.09033646
 C           -0.85351126       -2.11466160        1.42479438
 C           -2.26220795       -0.16479568        1.38737765
 C           -1.35018452        1.75841304        2.47825540
 C           -0.33934286        2.76909968        2.25977374
 C           -1.96794425        1.19815201        1.36502804
 C            1.45050872        2.68309298        0.74554560
 C            0.04978853        3.04905227        0.89400913
 C            2.45262838        0.80425870       -0.39683631
 C            1.84123386        2.06905276       -0.44219026
 C            2.31219747       -1.46163130       -1.22829555
 C            2.31826219       -0.08929194       -1.47178588
 C            0.58555852       -2.99463165       -0.82461449
 C            1.31330370       -2.29748760       -1.87577583
 C           -1.54119174       -2.65962130        0.34117289
 C           -0.80176644       -3.03612885       -0.85303868
 C           -3.07527312       -0.69528659        0.39589916
 C           -2.77968849       -2.03058239       -0.08810997
 C           -3.39769799        0.13351017       -0.75037917
 C           -1.89850751        1.86044633        0.13250801
 C           -0.81865211        2.71326778       -0.14080625
 C           -2.68326209        1.38802964       -0.91932094
 C            1.13203248        2.44115389       -1.57939215
 C           -0.28290024        2.74078816       -1.42683825
 C            1.86821582        0.36408443       -2.70894947
 C            1.30148017        1.68940259       -2.80143708
 C            0.63235427       -1.79711995       -2.97851298
 C            1.04856900       -0.51723399       -3.52709426
 C           -1.51770852       -2.51591090       -2.00856508
 C           -2.79102687       -1.99482841       -1.54149872
 C           -3.20442211       -0.66511572       -1.95088184
 C           -0.82221448       -1.84333430       -3.01086984
 C           -2.15900943        1.41305959       -2.27449153
 C           -0.99355700        2.12301061       -2.53210903
 C            0.00031809        1.57931757       -3.44370766
 C           -0.14476645        0.21641557       -3.91814141
 C           -2.35456938        0.08876373       -2.85386207
 C           -1.30065201       -0.55449405       -3.49826966
