54
Modified xyz file
 C            1.22757352       -0.05065246        4.25173419
 C            0.48894887       -1.20125538        3.76514840
 C            1.39060251       -2.00182601        2.97108530
 C            2.51106837       -0.03010885        3.56718458
 C            2.58962761       -1.21256640        2.73413852
 C            2.64969754        1.26606922        2.94029996
 C            0.49792515        1.14382626        3.85719155
 C            1.43935626        2.03003197        3.21972347
 C           -0.72102860       -0.71839196        3.13106728
 C           -0.67545405        0.73198743        3.10742012
 C           -1.19797429       -1.35270434        1.99346173
 C            0.91965807       -2.46813085        1.68196823
 C           -0.42147368       -2.32488960        1.34175127
 C            2.73263897       -1.06523870        1.29247425
 C            1.89524674       -2.08142012        0.68580083
 C            2.87570702        1.34503048        1.50484542
 C            2.77992955        0.20016121        0.70674477
 C            1.04797893        2.66039506        1.97678453
 C            2.18575340        2.54569533        1.08116603
 C           -1.01804307        1.38503348        1.91584547
 C           -0.23201336        2.45635242        1.45436431
 C           -2.11821730       -0.64855961        1.22937712
 C           -1.89008371        0.72427514        1.03250873
 C           -2.81916224       -1.38027207        0.28454092
 C           -0.77016468       -2.64037208        0.02690651
 C           -2.11325996       -2.49449936       -0.31136080
 C            1.42964427       -1.88082291       -0.60519474
 C            0.21327824       -2.46902138       -0.96173360
 C            2.39150132        0.33738981       -0.63047098
 C            1.87798583       -0.76775269       -1.32138890
 C            1.96099463        2.73170563       -0.27074702
 C            2.23225630        1.61923180       -1.16550762
 C           -0.47405541        2.98116927        0.18899929
 C            0.67051349        3.26691240       -0.66216857
 C           -2.26452630        1.34246674       -0.17225385
 C           -1.50640823        2.40306404       -0.64751941
 C           -3.50061682       -0.67745284       -0.77252495
 C           -3.02462963        0.64297880       -1.10738504
 C           -2.53103056       -2.60497559       -1.69419417
 C           -3.44108093       -1.50443737       -1.96697256
 C           -0.12141751       -2.51270940       -2.31423562
 C           -1.51239091       -2.60195326       -2.71991140
 C            1.45733202       -0.60752986       -2.64131990
 C            0.52479895       -1.57134482       -3.20774154
 C            1.40505517        1.81309003       -2.34667836
 C            0.37842590        2.77421365       -1.99519005
 C           -1.00606076        2.34360054       -2.01505915
 C            1.03141249        0.70639432       -3.08937553
 C           -2.55921060        0.60655486       -2.48722783
 C           -2.85673726       -0.70814898       -3.03098114
 C           -1.78401960       -1.48466178       -3.61370292
 C           -0.52510612       -0.82164264       -3.88252248
 C           -1.36313840        1.25236929       -2.80248374
 C           -0.35760719        0.57334215       -3.50668089
