54
Modified xyz file
 C            0.93182854       -0.00000000        4.72193396
 C            0.16565388       -1.17593158        4.33923723
 C            0.97759246       -1.96608304        3.43897199
 C            2.16181456        0.00000000        3.94810639
 C            2.22235410       -1.24437384        3.21059376
 C            2.22235410        1.24437384        3.21059376
 C            0.16565388        1.17593158        4.33923723
 C            0.97759246        1.96608304        3.43897199
 C           -1.13109158       -0.72900342        3.88350834
 C           -1.13109158        0.72900342        3.88350834
 C           -1.61684170       -1.15481792        2.57962648
 C            0.44700104       -2.34182756        2.13389967
 C           -0.83374649       -1.95414683        1.73811036
 C            2.43900932       -1.21116593        1.77323308
 C            1.53157285       -2.18294143        1.19076803
 C            2.43900932        1.21116593        1.77323308
 C            2.63146236        0.00000000        1.09965089
 C            0.44700104        2.34182756        2.13389967
 C            1.53157285        2.18294143        1.19076803
 C           -1.61684170        1.15481792        2.57962648
 C           -2.27537689       -0.00000000        2.00437314
 C           -0.83374649        1.95414683        1.73811036
 C           -2.48047245       -0.00000000        0.64076063
 C           -1.12930964       -1.93619871        0.36815576
 C           -2.23198120       -1.18596911       -0.03905695
 C            1.22462721       -2.03701982       -0.14965380
 C           -0.10310149       -2.17381344       -0.56024890
 C            2.44267506        0.00000000       -0.28610000
 C            2.04426450       -1.19772253       -0.88678556
 C            1.22462721        2.03701982       -0.14965380
 C            2.04426450        1.19772254       -0.88678556
 C           -1.12930964        1.93619871        0.36815576
 C           -2.23198120        1.18596911       -0.03905695
 C           -0.10310149        2.17381344       -0.56024890
 C           -2.62097035        1.23706834       -1.36859965
 C           -2.62097035       -1.23706834       -1.36859965
 C           -3.11584231       -0.00000000       -1.94467046
 C           -0.37946488       -2.05229856       -1.92971244
 C           -1.69520662       -1.80273946       -2.33183093
 C            1.91097106       -1.23208313       -2.26504311
 C            0.68637876       -1.79967444       -2.80463054
 C            1.91097106        1.23208313       -2.26504311
 C            2.15214266        0.00000000       -2.98349425
 C           -0.37946488        2.05229856       -1.92971244
 C           -1.69520662        1.80273946       -2.33183093
 C            0.68637876        1.79967444       -2.80463054
 C           -2.79814860       -0.00000000       -3.35766416
 C           -1.97560300       -1.16873323       -3.61500445
 C           -1.97560300        1.16873323       -3.61500445
 C            0.45854607       -1.16802403       -4.09733332
 C            1.31852032        0.00000000       -4.17050179
 C            0.45854607        1.16802403       -4.09733332
 C           -0.87495594       -0.73040348       -4.44440223
 C           -0.87495594        0.73040348       -4.44440223
