54
Modified xyz file
 C            1.46117286        0.01787407        3.98090838
 C            0.65623678       -1.15150581        3.67795320
 C            1.49615862       -2.06330007        2.93844781
 C            2.59967246        0.00161072        3.07736853
 C            2.70569260       -1.34095978        2.55653193
 C            2.42603094        1.09541285        2.13846198
 C            0.67108458        1.18897436        3.65391573
 C            1.44855542        1.99394156        2.73176670
 C           -0.57552018       -0.69496663        3.06272328
 C           -0.64391528        0.74725512        3.21698149
 C           -1.00153104       -1.24906870        1.86028989
 C            0.96900481       -2.66432939        1.72811425
 C           -0.29047413       -2.29932079        1.25332493
 C            2.85913301       -1.51726822        1.12630291
 C            2.06872034       -2.68600428        0.78883584
 C            2.36482592        0.82631600        0.76549610
 C            2.80786528       -0.41076021        0.27378565
 C            1.67388309        1.71406965       -0.07227680
 C            0.74322995        2.83278033        1.88987870
 C            1.10050544        2.85398517        0.48610354
 C           -1.27837125        1.49687953        2.22755865
 C           -0.70405637        2.72801921        1.89834184
 C           -1.95678326       -0.55357250        1.12349918
 C           -2.07175334        0.83541370        1.27718367
 C           -2.56610920       -1.19924108        0.05219505
 C           -0.62993896       -2.68337698       -0.04723871
 C           -1.87915288       -2.32782132       -0.54724330
 C            1.77932656       -2.90603227       -0.54620897
 C            0.38441026       -3.05928575       -0.93663815
 C            2.73072621       -0.66614027       -1.09280512
 C            2.38988331       -2.01568378       -1.51710378
 C            1.35267188        1.34080419       -1.38393619
 C            2.01250054        0.25754756       -1.95401179
 C            0.24918396        1.90429543       -2.04427840
 C           -0.01170575        3.49064611       -0.19022622
 C           -1.15191628        3.43965611        0.71922791
 C           -0.44800048        2.95977569       -1.46227480
 C           -2.75530492        1.58374140        0.31539716
 C           -2.27925342        2.91167449       -0.01612569
 C           -1.89756742        2.88528236       -1.41521383
 C           -3.18085336       -0.42450679       -1.01274507
 C           -3.14837728        0.96179872       -0.93731711
 C           -2.53922554        1.73338723       -2.02002989
 C           -2.08013657       -2.26185727       -1.98461898
 C           -2.87203917       -1.07778162       -2.27431618
 C            0.29725544       -2.68520635       -2.34195583
 C            1.49491515       -1.92202171       -2.65455001
 C            1.36142546       -0.51860933       -2.99999505
 C           -0.91835241       -2.25428899       -2.85481947
 C           -0.39419581        1.18530146       -3.05333036
 C           -1.84608265        1.06434971       -3.02087401
 C           -2.18195680       -0.31873761       -3.29863641
 C            0.15152015       -0.07794064       -3.51430170
 C           -0.95301726       -1.02120461       -3.62752251
