54
Modified xyz file
 C            1.17732351       -0.14164307        3.84805915
 C            2.36504716       -0.30462245        3.02979796
 C            2.20470376       -1.51904196        2.24865764
 C            0.32229967       -1.29643891        3.62351167
 C            0.89137194       -2.06992901        2.53300193
 C           -1.03736920       -0.82205877        3.49433200
 C            0.36537409        1.05495780        3.68599451
 C           -1.01104998        0.63168986        3.48974556
 C            0.84732689        2.11338873        2.92393241
 C            2.74050917        0.76320893        2.12148209
 C            2.14640995        2.00934902        2.26631726
 C            2.53768834       -1.21346787        0.86848977
 C            2.87826912        0.19460405        0.78470186
 C            1.75739960       -1.75832388       -0.13646614
 C            0.08896967       -2.44536276        1.45478068
 C            0.70446754       -2.60725444        0.20979614
 C           -1.80005357       -1.24617396        2.34048552
 C           -1.29976122       -2.24107436        1.50863752
 C           -1.73159483        1.08954325        2.30801196
 C           -2.37069510       -0.06611442        1.71309700
 C           -0.04781681        2.75382467        1.97619909
 C           -1.14483698        2.04071499        1.48344212
 C            2.11139039        2.88861648        1.11279320
 C            0.79566357        3.50920074        1.07552185
 C            2.47008581        0.93431244       -0.33073124
 C            2.34683589        2.31921510       -0.20199868
 C            1.73463743       -1.12280830       -1.37304376
 C            1.89355569        0.27111624       -1.43146564
 C            1.21584505       -1.82280919       -2.45539600
 C            0.00156154       -3.24668078       -0.80427289
 C            0.34917237       -2.95645028       -2.18636719
 C           -2.04578192       -2.49356480        0.36314268
 C           -1.44162572       -3.25766929       -0.70922371
 C           -2.58770346       -0.10440680        0.33943916
 C           -2.74449530       -1.36638018       -0.23856729
 C           -1.42559747        2.02491090        0.10918438
 C           -2.16130723        0.96841834       -0.45451508
 C            0.40574574        3.61085196       -0.31031289
 C            1.48337249        3.04190298       -1.10730854
 C           -0.81104019        2.95021138       -0.73708640
 C            1.27127260        1.01277428       -2.45518616
 C            0.86245001        2.31378508       -2.18762748
 C           -0.56574635        2.57768890       -2.11257122
 C            0.63964570       -1.08873105       -3.55724220
 C            0.56115306        0.35130051       -3.45355715
 C           -0.88763593       -2.75563986       -2.92557527
 C           -1.97606155       -2.76041579       -1.96503092
 C           -2.69564783       -1.52517125       -1.68099079
 C           -0.70854758       -1.59536774       -3.77532409
 C           -2.30105162        0.89025606       -1.84541869
 C           -1.41617847        1.66273114       -2.70662442
 C           -0.82811848        0.73160416       -3.65367448
 C           -2.50431421       -0.40448657       -2.47900186
 C           -1.62551676       -0.47809023       -3.63797490
