54
Modified xyz file
 C            1.17920976       -0.09939941        3.93586461
 C            2.33895239       -0.29486468        3.08614222
 C            2.18545277       -1.58556374        2.43216427
 C            0.36695795       -1.30160472        3.83903305
 C            0.84128548       -2.04908125        2.68437673
 C           -1.02125884       -0.89553866        3.89020144
 C            0.30640904        1.03669901        3.69542012
 C           -1.06352238        0.55490282        3.75722485
 C            0.64332224        1.97408263        2.72466692
 C            2.64060332        0.68484861        2.05541670
 C            1.87497795        1.83501528        1.95269311
 C            2.59661510       -1.43103833        1.06058610
 C            2.98043883       -0.04519034        0.84802084
 C            1.86101376       -2.04535723        0.06135629
 C           -0.01276618       -2.27801152        1.59982306
 C            0.49579937       -2.30702791        0.28910536
 C           -1.93073680       -1.44864971        2.90967986
 C           -1.39031018       -2.20710318        1.79151340
 C           -1.97763188        0.87433903        2.66954543
 C           -2.68469863       -0.34187143        2.34530334
 C           -0.38392258        2.44673669        1.81146583
 C           -1.54253129        1.69284001        1.62897056
 C            1.63218440        2.40272854        0.63780277
 C            0.30191934        2.99645996        0.65978704
 C            2.73767447        0.50955556       -0.41195431
 C            2.07102682        1.74152081       -0.51343376
 C            2.28052432       -1.74991450       -1.22478580
 C            2.70398330       -0.38334962       -1.48734874
 C            1.49376902       -2.20529429       -2.34245534
 C           -0.39557929       -2.39977514       -0.80027577
 C            0.11088537       -2.54221879       -2.09689279
 C           -2.23856351       -1.90671585        0.66040352
 C           -2.90186119       -0.64352589        0.95035628
 C           -1.75268371       -2.08903265       -0.62588350
 C           -2.06661020        1.52983359        0.33572254
 C           -2.79401168        0.37263720        0.00673269
 C           -0.39231054        3.11843182       -0.53082368
 C           -1.65202783        2.40333845       -0.67504058
 C            1.56766766        2.16579516       -1.74500215
 C            0.34882903        2.95770473       -1.76691984
 C            2.13755259        0.01425257       -2.76276990
 C            1.52788569       -1.16407921       -3.35774641
 C            1.51154119        1.24713725       -2.86883931
 C           -0.64375150       -2.03068502       -3.22977171
 C            0.19710266       -1.06532684       -3.92260534
 C           -2.42089082       -1.38659043       -1.62556321
 C           -2.86599413       -0.03833553       -1.32187733
 C           -1.92114583       -1.40210799       -2.98173584
 C           -1.78283000        2.02223116       -2.07248046
 C           -0.54709957        2.37924447       -2.75098377
 C            0.18770578        1.35573162       -3.47543023
 C           -0.48741324        0.21568120       -3.90138166
 C           -2.40686827        0.82709982       -2.39179347
 C           -1.84426950       -0.02159414       -3.43558403
