54
Modified xyz file
 C            1.62385266        0.07325911        3.73219462
 C            0.79018022       -1.10747171        3.60283269
 C            1.31015765       -1.91083990        2.51155597
 C            2.57135848        0.07029969        2.63133845
 C            2.37005687       -1.14188305        1.87007250
 C            2.45089329        1.33494674        1.94127280
 C            0.76679066        1.23225442        3.56287271
 C            1.40653899        2.10914116        2.60644432
 C           -0.59026029       -0.67206724        3.52902870
 C           -0.57195794        0.75814153        3.26087994
 C           -1.47365307       -1.46235085        2.81696431
 C            0.40580090       -2.61125006        1.71243906
 C           -0.94714334       -2.59294715        2.06405635
 C            0.78031064       -2.91485151        0.40180524
 C            2.40362405       -1.08375393        0.48201959
 C            1.86296825       -2.16188053       -0.21069729
 C            2.51985194        1.35669070        0.54836122
 C            2.56783792        0.14948432       -0.17072594
 C            2.11721461        2.52612670       -0.09642934
 C            0.58979955        2.90674608        1.82051490
 C            1.12107154        3.35696436        0.55073884
 C           -1.22559566        1.26466265        2.13204449
 C           -0.78411816        2.46846611        1.58388178
 C           -2.41655746       -0.80985588        1.93437045
 C           -2.07659158        0.43276807        1.39328118
 C           -1.96155457       -2.93518753        1.08025930
 C           -2.94426033       -1.85931718        1.08696173
 C           -0.22316773       -3.16074973       -0.62700735
 C           -1.57003535       -3.16412044       -0.29660177
 C            1.59007700       -2.05323151       -1.63077794
 C            0.22491352       -2.51249961       -1.85403545
 C            2.57773507        0.18391972       -1.56797558
 C            2.05909598       -0.94865584       -2.32111512
 C            1.80475142        2.50553984       -1.51308687
 C            2.17848483        1.39812936       -2.26224853
 C            0.00852793        3.49267651       -0.36735047
 C           -1.12439380        2.79158306        0.21141911
 C            0.47328285        3.08704692       -1.68018866
 C           -2.36187027        0.72759575        0.04609811
 C           -1.79774570        1.85348029       -0.56289952
 C           -3.26711071       -1.54507111       -0.28224155
 C           -2.50538102       -2.44387083       -1.13797658
 C           -3.02717496       -0.19907456       -0.76003712
 C           -0.65812289       -1.74174293       -2.61751527
 C           -2.00051393       -1.65266654       -2.24741989
 C           -2.61932625       -0.33959946       -2.14259854
 C            1.26446861       -0.43253332       -3.41799148
 C            1.38054126        1.01594998       -3.41460298
 C           -0.14717271       -0.77341257       -3.48066542
 C           -0.43902990        2.47512062       -2.52902143
 C           -1.64381286        1.89092500       -1.95409712
 C           -2.00222678        0.73452440       -2.76071443
 C            0.04777612        1.57030551       -3.55393697
 C           -0.88918554        0.46413638       -3.65374974
