54
Modified xyz file
C          1.57040        0.01364        4.01027
C          0.75599       -1.15938        3.73456
C          1.37031       -1.82771        2.57532
C          2.70654        0.00663        3.10727
C          2.57559       -1.20748        2.27999
C          2.52766        1.17973        2.23324
C          0.74051        1.17314        3.71073
C          1.33696        1.81383        2.53027
C         -0.63670       -0.74011        3.56845
C         -0.64746        0.73859        3.55152
C         -1.48794       -1.47735        2.61846
C          0.61670       -2.46541        1.56075
C         -0.88680       -2.51012        1.74407
C          1.16633       -2.51639        0.22996
C          3.06348       -1.22050        0.96982
C          2.39568       -1.87084       -0.04162
C          2.98439        1.15109        0.91884
C          3.64585       -0.02440        0.39437
C          2.28959        1.77468       -0.10713
C          0.58227        2.44927        1.51667
C          1.09502        2.49018        0.17095
C         -1.50018        1.44424        2.57259
C         -0.90861        2.48616        1.69687
C         -2.51657       -0.77625        1.83039
C         -2.49738        0.69977        1.77990
C         -1.76266       -2.63451        0.57295
C         -2.73787       -1.51061        0.58917
C          0.24981       -2.72081       -0.90194
C         -1.19362       -3.01190       -0.71330
C          0.49114       -2.21652       -2.13254
C          2.66996       -1.19541       -1.35427
C          3.25795       -0.03293       -0.99267
C          2.58402        1.23227       -1.32968
C          1.68992       -1.32834       -2.52432
C          1.71607        1.42808       -2.55502
C          1.26253        0.05205       -3.24366
C          0.27819        2.79356       -0.85589
C          0.59012        2.42099       -2.25406
C         -1.72664        2.54945        0.48085
C         -2.66711        1.38424        0.48624
C         -1.18807        2.92274       -0.69046
C         -3.06698       -0.77314       -0.68666
C         -3.04492        0.76322       -0.68080
C         -1.86207       -2.57077       -1.91412
C         -0.78763       -2.16310       -2.80250
C         -2.73734       -1.38654       -1.87088
C         -0.21419        0.03248       -3.71196
C         -1.10589       -1.10818       -3.51337
C         -2.38731       -0.64165       -3.07312
C         -0.69954        2.30522       -2.90326
C         -1.78255        2.57085       -1.95460
C         -2.76943        1.47848       -1.98187
C         -1.03712        1.07483       -3.53452
C         -2.36039        0.66093       -3.11024
