54
Modified xyz file
 C            1.43951690       -0.13471561        4.02197342
 C            0.59925360       -1.31432636        4.02158773
 C            1.08512159       -2.19705904        2.97551803
 C            2.42633271       -0.29669006        2.96695135
 C            2.10449820       -1.49381310        2.22631794
 C            2.46735857        0.94364818        2.23663484
 C            0.60687754        0.99794469        3.65427539
 C            1.34115832        1.75619108        2.67413244
 C           -0.74012560       -0.90000047        3.63944034
 C           -0.69246124        0.49870142        3.26857743
 C           -0.07158587       -2.66275614        2.24620290
 C           -1.20735311       -1.83963061        2.64491816
 C            0.06043626       -2.92906979        0.88940105
 C            1.95455279       -1.40739647        0.84305403
 C            1.13639183       -2.34249376        0.19814638
 C            2.71377491        0.91440845        0.86975712
 C            2.38616119       -0.25653182        0.15124355
 C            2.56219535        2.14356871        0.24201502
 C            0.64100250        2.42355488        1.67785613
 C            1.44700124        2.96345639        0.68621937
 C           -1.20442607        0.86553264        2.02543364
 C           -0.63458550        1.94116846        1.31639299
 C           -2.04355758       -1.38057795        1.63096531
 C           -2.09551972       -0.00061808        1.37994254
 C           -1.13763367       -3.12746279        0.21353167
 C           -2.24517869       -2.26113688        0.57103086
 C           -1.13384451       -3.29566399       -1.22205049
 C            1.19978755       -2.42701994       -1.18878278
 C            0.08235768       -2.98269243       -1.93566316
 C            2.27982741       -0.21760386       -1.25513210
 C            1.69825467       -1.28728042       -1.93251688
 C            2.61522350        2.20955169       -1.19431965
 C            2.33159570        1.00210641       -1.93110575
 C            0.83198588        3.54922553       -0.47609597
 C            1.67457703        3.23321853       -1.61738067
 C           -1.23167118        2.35813162        0.11110455
 C           -0.51969111        3.15232943       -0.79439500
 C           -2.79902358        0.46876419        0.27744302
 C           -2.37943796        1.71143265       -0.34562886
 C           -2.86122348       -1.79621272       -0.65698306
 C           -2.20403554       -2.47489220       -1.76682111
 C           -3.19011528       -0.45493119       -0.77842585
 C           -0.25459078       -2.05106773       -2.99960990
 C            0.74299696       -0.99979216       -2.99462920
 C           -1.65308048       -1.69205555       -2.86231496
 C            1.29166459        1.30944233       -2.90474194
 C            0.82395399        2.65585846       -2.63947223
 C           -0.54834903        2.82654933       -2.21622407
 C            0.36021462        0.32130276       -3.20778576
 C           -2.57921725        1.57472784       -1.77919129
 C           -2.97560548        0.20633968       -2.05289389
 C           -2.02122261       -0.35922686       -2.99426403
 C           -1.47758385        1.90283444       -2.66176119
 C           -1.00295391        0.65272822       -3.25187740
