54
Modified xyz file
 C            1.34809137        0.00345110        3.96476239
 C            0.57517513       -1.20627037        3.74725959
 C            1.36191599       -2.09593927        2.92776453
 C            2.52631522       -0.06937150        3.11762999
 C            2.56594404       -1.38215318        2.51939668
 C            2.50176022        1.07680042        2.23774898
 C            0.54573127        1.13156313        3.51446182
 C            1.30558598        1.85016756        2.52718151
 C           -0.72789201       -0.81135250        3.26144904
 C           -0.74927255        0.63677338        3.12593936
 C           -1.35548592       -1.55223477        2.26706783
 C            0.75551336       -2.64400536        1.72845917
 C           -0.58263544       -2.37326537        1.42049967
 C            2.66225774       -1.48171177        1.07302672
 C            1.75034071       -2.53867942        0.67727538
 C            2.85905579        0.93889917        0.89960333
 C            2.74722085       -0.32664995        0.28581058
 C            2.65977919        2.07762625        0.12849705
 C            0.64814193        2.42333420        1.44413289
 C            1.49085389        2.88744523        0.44180013
 C           -1.38154766        1.17384160        2.00432631
 C           -0.64344968        1.96372057        1.09630697
 C           -2.50831017       -0.97285458        1.75605758
 C           -2.49237134        0.46861678        1.54766186
 C           -3.15744964       -1.58270330        0.62085627
 C           -1.02389673       -2.64303166        0.11568933
 C           -2.36060370       -2.44311002       -0.22137659
 C            1.32272748       -2.58502809       -0.63604908
 C           -0.08605139       -2.81404667       -0.90480482
 C            2.44057920       -0.43074957       -1.08323628
 C            1.77477006       -1.55806941       -1.56025811
 C            2.75109318        1.97831605       -1.30633343
 C            2.49070739        0.69060898       -1.90506489
 C            0.92576605        3.35705896       -0.79603788
 C            1.81791483        2.93992877       -1.86583840
 C           -1.14189369        2.17544072       -0.20948729
 C           -0.40909827        2.92344962       -1.13527370
 C           -3.01298564        0.71862221        0.22275539
 C           -3.66857288       -0.50786290       -0.20993786
 C           -2.24180428        1.44625952       -0.67418305
 C           -2.71399560       -2.13520944       -1.59951928
 C           -3.53461281       -0.93191292       -1.58846499
 C           -0.35578525       -2.28488910       -2.23241291
 C            0.74731588       -1.39604431       -2.57975401
 C           -1.65582066       -1.94663490       -2.57777950
 C            1.46122817        0.86977963       -2.92247602
 C            1.01320644        2.24968554       -2.85314169
 C           -0.37594626        2.49352324       -2.52565586
 C            0.50196371       -0.12603774       -3.10560385
 C           -2.40263222        1.24617627       -2.04786360
 C           -2.96402179       -0.00089825       -2.53765294
 C           -1.89984006       -0.68779037       -3.25430601
 C           -1.29800285        1.54752629       -2.93248922
 C           -0.80697658        0.25989151       -3.40841910
