54
Modified xyz file
 C            1.14416107       -0.04026235        3.87188223
 C            2.45589951       -0.36116426        3.34438665
 C            2.36367402       -1.65961993        2.69273666
 C            0.31858173       -1.22754356        3.73378234
 C            0.98061215       -2.10530225        2.78717500
 C           -1.02563558       -0.78393812        3.44155005
 C            0.39897290        1.06842413        3.29427039
 C           -0.98903798        0.66015708        3.25459087
 C            0.92177468        1.76693170        2.20725086
 C            3.06506391        0.55972433        2.40781230
 C            2.28538802        1.68048253        1.91288263
 C            2.98344854       -1.55020547        1.38072829
 C            3.49458093       -0.19964335        1.24253784
 C            2.35243791       -2.13925010        0.29526220
 C            0.31679298       -2.50401251        1.62504665
 C            1.08595294       -2.81717711        0.50375656
 C           -1.70270823       -1.34320525        2.29117331
 C           -1.06614430       -2.29151413        1.48978192
 C           -1.76993463        0.96914519        2.07030555
 C           -2.41505608       -0.25550660        1.64252731
 C            0.05756705        2.32275696        1.25629794
 C           -1.23604506        1.79924916        1.09598407
 C            0.62516506        3.06445377        0.22095534
 C            2.71881884        1.88450627        0.54409205
 C            3.13599584        0.57832011        0.06430144
 C            1.92307664        2.65290031       -0.28193150
 C            2.23315128       -1.40265480       -0.95673770
 C            2.41840237       -0.02452827       -0.97274238
 C            0.45798630       -2.93097192       -0.79481380
 C            1.11912679       -1.97902823       -1.68237478
 C           -1.70151527       -2.61991441        0.29197526
 C           -0.91762535       -3.05591676       -0.85337524
 C           -2.74867936       -0.40730795        0.30105637
 C           -2.71213516       -1.70393377       -0.21221154
 C           -1.83490174        1.79488584       -0.16522898
 C           -2.59623061        0.68300683       -0.56926115
 C           -0.17690248        3.39681620       -0.94395983
 C           -1.48128457        2.78776417       -1.07618867
 C            1.66658336        2.15863077       -1.61635266
 C            1.63529710        0.77468931       -1.81541774
 C            0.59127505        2.98829668       -2.11340711
 C            0.34632695       -1.17664046       -2.51610292
 C            0.62347668        0.19789350       -2.60856290
 C           -1.59514539       -2.59395819       -2.05199071
 C           -2.81715700       -1.92290324       -1.63966908
 C           -0.89091910       -1.67833078       -2.92971903
 C           -2.99174237        0.54543457       -1.90466295
 C           -2.99240626       -0.77420452       -2.50359607
 C           -1.89889043       -0.78772550       -3.46458775
 C           -1.66549858        2.56500581       -2.49467416
 C           -0.33390100        2.41744248       -3.06108456
 C           -0.19253239        1.01739951       -3.39959136
 C           -2.42942425        1.41494796       -2.91769709
 C           -1.53813740        0.58709859       -3.71816041
