54
Modified xyz file
 C            1.60771430        0.05585257        3.71434020
 C            0.77272528       -1.11666247        3.52754650
 C            1.35950964       -1.91655717        2.47025265
 C            2.58524068        0.07969083        2.63879382
 C            2.44577309       -1.14362427        1.88330762
 C            2.44177624        1.33348992        1.93522338
 C            0.76331943        1.22570760        3.56092469
 C            1.41589658        2.11339839        2.62117412
 C           -0.59774093       -0.67484496        3.37298566
 C           -0.58301850        0.77525129        3.25322654
 C           -1.42619195       -1.40537295        2.53847709
 C            0.52404036       -2.63100905        1.61409953
 C           -0.86503670       -2.49194554        1.74150729
 C            1.06420646       -3.04323645        0.39837919
 C            2.55150343       -1.10663653        0.49671795
 C            2.12739818       -2.24306084       -0.18791721
 C            2.47933441        1.33813750        0.54086763
 C            2.58972047        0.13009923       -0.17022192
 C            2.04330398        2.48722109       -0.11754703
 C            0.61307390        2.95251708        1.86365918
 C            1.09743007        3.35566949        0.55822490
 C           -1.27254339        1.39303830        2.20759653
 C           -0.79794190        2.61389447        1.71461306
 C           -2.37529049       -0.69992645        1.69802048
 C           -2.22552701        0.67050607        1.48016630
 C           -1.73955622       -2.67071934        0.58631487
 C           -2.70428735       -1.58064010        0.58639809
 C            0.18926476       -3.48010252       -0.67318344
 C           -1.21564186       -3.13239495       -0.61441128
 C            1.92741837       -2.20720750       -1.62469478
 C            0.72934028       -2.97731078       -1.92586914
 C            2.56651642        0.15728815       -1.56772788
 C            2.16661572       -1.02722771       -2.31127976
 C            1.63896801        2.41544365       -1.50825186
 C            2.01739331        1.31486143       -2.25709380
 C           -0.05156666        3.52233719       -0.31554400
 C           -1.23173408        3.09325145        0.41101441
 C            0.26083921        2.88558351       -1.58372435
 C           -2.83667620        1.25231999        0.37073965
 C           -2.21249095        2.39309119       -0.27237588
 C           -3.13043768       -1.03020727       -0.61577623
 C           -3.36312752        0.40070533       -0.68404268
 C           -1.56521247       -2.46864667       -1.86248505
 C           -0.35545557       -2.35085569       -2.66399035
 C           -2.50196281       -1.43992852       -1.86320532
 C            1.23441707       -0.61154906       -3.34726192
 C            1.10550713        0.83279713       -3.27709398
 C           -0.10374394       -1.18185311       -3.37369683
 C           -0.70622895        2.09662038       -2.20756370
 C           -1.99201860        2.03348473       -1.66703309
 C           -2.83417792        0.88389694       -1.95042635
 C           -2.26780477       -0.24605102       -2.66238850
 C           -0.30610402        1.15470456       -3.15650690
 C           -1.05672833       -0.08328857       -3.32325808
