54
Modified xyz file
 C            1.55941529       -0.15484123        4.29831828
 C            0.67290851       -1.29045212        4.47713332
 C            1.20484240       -2.39327783        3.69633885
 C            2.56137205       -0.52071650        3.31005357
 C            2.33813163       -1.89617605        2.93292698
 C            2.52933740        0.48200350        2.26432956
 C            0.77757892        0.93488787        3.73824573
 C            1.49969105        1.44726050        2.59499958
 C           -0.61807516       -0.93401790        3.91359776
 C           -0.57304689        0.46496484        3.51693270
 C            0.18417696       -2.79403600        2.74325155
 C           -0.95838493       -1.91784865        2.89774295
 C            2.08651767       -2.18554052        1.53373853
 C            0.80402386       -2.85600056        1.43666897
 C            2.62959874        0.10115469        0.92781661
 C            2.38314103       -1.23484665        0.55732582
 C            2.37646777        1.09357646       -0.01995573
 C            0.77419617        1.96587455        1.53083623
 C            1.43893280        2.08458716        0.31577336
 C           -1.19797373        0.81580822        2.32451193
 C           -0.61754140        1.79283543        1.50436588
 C           -1.58287028       -1.46040117        1.74242305
 C           -2.01154187       -0.13825398        1.72408009
 C            0.02729427       -2.55820175        0.32485461
 C           -1.26787474       -2.05876165        0.51741173
 C            1.88982569       -1.48005910       -0.72867814
 C            0.69667328       -2.20665257       -0.84332236
 C            2.58191639        0.75490906       -1.35257247
 C            2.26815173       -0.60238737       -1.74083569
 C            2.13733527        1.64496664       -2.40576545
 C            0.80616271        2.82422699       -0.67427354
 C            1.24951406        2.72710736       -2.05076570
 C           -1.32537342        2.19551729        0.36121403
 C           -0.64426837        2.86621377       -0.66111648
 C           -2.79719236        0.26416876        0.66108092
 C           -2.54319700        1.57152746        0.08551927
 C           -2.00829590       -1.67448752       -0.60774861
 C           -2.95057111       -0.65209791       -0.45220056
 C           -0.05617605       -2.14492279       -2.00831382
 C           -1.48943930       -1.96583288       -1.87340209
 C            1.52090998       -0.54912250       -2.98568266
 C            1.48246827        0.83828635       -3.42302640
 C            0.39194926       -1.33978131       -3.13072476
 C            0.07030771        2.63893537       -2.89495812
 C           -1.10099862        2.78101790       -2.04507950
 C            0.20280710        1.45716372       -3.73252476
 C           -3.05951539        1.53860588       -1.27336805
 C           -3.38014435        0.15233972       -1.58492717
 C           -2.24771880        2.06190393       -2.35255719
 C           -1.95705032       -1.25967827       -3.05634139
 C           -0.78752964       -0.79014717       -3.78242367
 C           -0.90938547        0.65045633       -3.94758567
 C           -2.86482415       -0.14274546       -2.90409646
 C           -2.19665873        1.05098767       -3.39924543
