54
Modified xyz file
 C            1.58683385        0.08375229        3.85103215
 C            0.75019007       -1.08517237        3.64753956
 C            1.33118769       -1.88053005        2.58075964
 C            2.61475896        0.07789440        2.82626835
 C            2.44790021       -1.12469213        2.02824057
 C            2.58570016        1.36494006        2.15858661
 C            0.76115533        1.25659400        3.63087468
 C            1.45746867        2.11972376        2.69323564
 C           -0.61926952       -0.63500323        3.49459334
 C           -0.57784801        0.80434878        3.28713422
 C           -1.46047665       -1.39394471        2.70085529
 C            0.47567662       -2.55357657        1.71031110
 C           -0.89861804       -2.51668942        1.96354992
 C            0.94030778       -2.84972577        0.42815715
 C            2.59674202       -1.05512370        0.64496478
 C            2.02793277       -2.06010784       -0.12972551
 C            2.85347809        1.40442013        0.79566943
 C            2.94510477        0.15677595        0.04582650
 C            2.17994925        2.38179929       -0.04612646
 C            0.68812653        2.89313897        1.83326128
 C            1.16924110        3.16764639        0.49028266
 C           -1.20586099        1.37032781        2.17511207
 C           -0.73181031        2.59724876        1.71857333
 C           -2.34550183       -0.70965526        1.77954699
 C           -2.00727404        0.57008559        1.34540722
 C           -1.84488146       -2.82430763        0.90569934
 C           -2.76939913       -1.70066273        0.81420405
 C            0.01342797       -3.16259756       -0.65187712
 C           -1.35560648       -3.10130071       -0.43097221
 C            1.73681598       -1.82345990       -1.53576642
 C            0.56720481       -2.62211812       -1.88423582
 C            2.53653627        0.43523095       -1.32283829
 C            2.02144868        1.79539151       -1.37068202
 C            1.90991090       -0.54916993       -2.07912856
 C            0.89310484        2.06631944       -2.14589797
 C            0.00824744        3.47812769       -0.32121790
 C           -1.17700212        3.10550698        0.44167705
 C           -0.12350726        2.88055913       -1.63827053
 C           -2.28979163        0.95958826        0.02203960
 C           -1.98543878        2.25140451       -0.40130293
 C           -1.50982732        2.45132283       -1.75559898
 C           -2.85669466       -1.31982446       -0.57660762
 C           -2.19498856       -2.35672730       -1.35373085
 C           -2.68003488        0.01296466       -0.93852735
 C           -0.28463745       -2.18407589       -2.89085502
 C           -1.70863832       -2.03031858       -2.61331202
 C            1.13972415       -0.15244066       -3.16993607
 C            0.58955619        1.19678310       -3.19199973
 C            0.13378000       -1.05632178       -3.70093357
 C           -1.83240117        1.50775366       -2.71437570
 C           -2.53337197        0.30318484       -2.29705577
 C           -2.13192751       -0.76861947       -3.19465238
 C           -0.78974171        1.09925995       -3.63494420
 C           -1.04696130       -0.27592794       -4.02283151
