54
Modified xyz file
 C            1.45298516       -0.21571773        4.13876168
 C            0.63012878       -1.41110052        4.17562703
 C            1.22783668       -2.38403838        3.28125908
 C            2.49722626       -0.41679821        3.14681759
 C            2.40936216       -1.78414631        2.67616902
 C            2.40797016        0.66415448        2.17777806
 C            0.61973460        0.87414742        3.67009520
 C            1.33703431        1.54911827        2.60529388
 C           -0.67803502       -1.07186690        3.63680131
 C           -0.69487287        0.34748894        3.35441518
 C            0.17459607       -2.88276188        2.41231538
 C           -0.96586706       -1.98615700        2.55079598
 C            0.52438037       -3.32062234        1.14222498
 C            2.66681327       -2.04052506        1.33633304
 C            1.87170103       -3.05288115        0.66289628
 C            2.53354301        0.38247843        0.81441735
 C            2.82293905       -0.92430249        0.40730341
 C            1.98281290        1.28128599       -0.11034280
 C            0.58801547        2.15854244        1.61194438
 C            1.19622407        2.33154402        0.37660969
 C           -1.28224857        0.78960902        2.17489705
 C           -0.79488421        1.97034107        1.62694331
 C           -1.57857295       -1.49342494        1.40067137
 C           -1.89977502       -0.12767081        1.31506732
 C           -0.38500983       -3.06723338        0.03769457
 C           -1.50314671       -2.25738957        0.23529987
 C            1.78595901       -2.68819648       -0.73963257
 C            2.37711011       -1.37794595       -0.90177856
 C            0.41299685       -2.86355893       -1.16275144
 C            1.84113254        0.88127918       -1.44402580
 C            1.73408665       -0.47548015       -1.73439741
 C            1.41255228        1.80204395       -2.39358083
 C            0.57191452        3.19479997       -0.51549052
 C            0.81073185        3.03667373       -1.93616005
 C           -1.54340367        2.56889973        0.62449479
 C           -0.84921827        3.41940068       -0.32804841
 C           -2.51700669        0.35938216        0.15498382
 C           -2.46562110        1.73037257       -0.12363503
 C           -2.18320510       -1.82301554       -0.89467923
 C           -2.85015067       -0.53711825       -0.85706237
 C           -0.09815598       -2.00954260       -2.13239488
 C            0.68529016       -0.92205049       -2.54840223
 C           -1.48288162       -1.88575426       -2.16416227
 C            0.63238266        1.32569821       -3.52307473
 C            0.19301615       -0.05995114       -3.52883164
 C           -0.46056307        3.19962877       -2.62496802
 C           -1.50172516        3.28107459       -1.61629444
 C           -2.47907063        2.20878841       -1.50240067
 C           -0.54793434        2.17029131       -3.64194832
 C           -2.95685101       -0.07521010       -2.23394414
 C           -2.09634100       -0.91995869       -3.05045167
 C           -1.22980371       -0.05914785       -3.82682496
 C           -2.64459879        1.30544157       -2.54606650
 C           -1.71153309        1.30108217       -3.66656114
