54
Modified xyz file
 C            1.60675782        0.00000000        3.70121484
 C            0.76217285       -1.17221350        3.55864653
 C            1.29415611       -1.97393996        2.47285917
 C            2.55435128        0.00000000        2.59883176
 C            2.39598678       -1.23580606        1.87063778
 C            2.39598678        1.23580606        1.87063778
 C            0.76217285        1.17221350        3.55864653
 C            1.29415611        1.97393996        2.47285917
 C           -0.61475894       -0.72895018        3.48082226
 C           -0.61475894        0.72895018        3.48082226
 C           -1.48125278       -1.41925488        2.64291974
 C            0.41939905       -2.65620746        1.62985247
 C           -0.96234394       -2.47540879        1.77984913
 C            0.92522411       -3.09302889        0.40790353
 C            2.49798356       -1.22338330        0.48318772
 C            2.02456329       -2.34920271       -0.18610352
 C            2.49798356        1.22338330        0.48318772
 C            2.59490929       -0.00000000       -0.20300110
 C            2.02456329        2.34920271       -0.18610352
 C            0.41939905        2.65620746        1.62985247
 C            0.92522411        3.09302889        0.40790353
 C           -1.48125278        1.41925488        2.64291974
 C           -0.96234394        2.47540879        1.77984913
 C           -2.49902908       -0.69539684        1.89691627
 C           -2.49902908        0.69539684        1.89691627
 C           -1.85184091       -2.56798572        0.62701501
 C           -2.74885188       -1.42269854        0.66152831
 C            0.01569812       -3.47174359       -0.65702032
 C           -1.36162978       -3.02909080       -0.58808802
 C            1.83045578       -2.32374315       -1.62406882
 C            0.57940053       -3.00884392       -1.91440621
 C            2.60619802        0.00000000       -1.60007235
 C            2.15088754       -1.17395626       -2.32900511
 C            1.83045578        2.32374315       -1.62406882
 C            2.15088754        1.17395626       -2.32900511
 C            0.01569812        3.47174359       -0.65702032
 C            0.57940053        3.00884392       -1.91440621
 C           -1.85184091        2.56798572        0.62701501
 C           -2.74885188        1.42269854        0.66152831
 C           -1.36162978        3.02909080       -0.58808802
 C           -3.03344375       -0.72749316       -0.50918580
 C           -3.03344375        0.72749316       -0.50918580
 C           -1.66026959       -2.30350188       -1.81507159
 C           -0.46388879       -2.30702395       -2.64460973
 C           -2.47557807       -1.17715242       -1.77556381
 C            1.25651236       -0.72567662       -3.38441597
 C            1.25651236        0.72567662       -3.38441597
 C           -0.12603216       -1.17787071       -3.38291622
 C           -0.46388879        2.30702395       -2.64460973
 C           -1.66026959        2.30350188       -1.81507159
 C           -2.47557807        1.17715242       -1.77556381
 C           -2.12867536        0.00000000       -2.55738217
 C           -0.12603216        1.17787071       -3.38291622
 C           -0.98058189        0.00000000       -3.34295662
