54
Modified xyz file
 C            1.44217562       -0.01918053        4.12174253
 C            0.58513054       -1.18401820        4.24818639
 C            1.14917527       -2.23845013        3.42681581
 C            2.48546566       -0.33117353        3.15777424
 C            2.36240993       -1.72986406        2.80123691
 C            2.43069039        0.66566265        2.10119864
 C            0.64410576        1.05674425        3.56339758
 C            1.36927793        1.60072882        2.43590278
 C           -0.71234942       -0.84503346        3.68811915
 C           -0.69368018        0.55978500        3.31575223
 C            0.08569947       -2.75361002        2.57727179
 C           -1.02845312       -1.82071651        2.65749553
 C            0.42997723       -3.27878765        1.34107988
 C            2.63283283       -2.10336141        1.49238770
 C            1.80483920       -3.13285526        0.88919191
 C            2.57088570        0.26790491        0.76765035
 C            2.84560381       -1.07124093        0.47989924
 C            2.04209392        1.09194024       -0.23619497
 C            0.64035930        2.12597375        1.38329587
 C            1.27932561        2.19767158        0.15993086
 C           -1.30531448        0.92640104        2.12121912
 C           -0.74877351        1.96797212        1.37241680
 C           -1.62800843       -1.36105563        1.48667240
 C           -2.05364927       -0.03279906        1.44637015
 C           -0.42891089       -3.01813484        0.19696772
 C           -1.43050910       -2.04942567        0.28335361
 C            1.77865029       -2.89577333       -0.54036545
 C            2.43425005       -1.62431840       -0.79991545
 C            0.40954681       -3.06362214       -0.98920258
 C            1.91856644        0.59683918       -1.54459453
 C            1.87512275       -0.78211654       -1.75294243
 C            1.44700828        1.43942749       -2.55214678
 C            0.68633243        3.00100343       -0.79686098
 C            1.00724608        2.76753075       -2.18448231
 C           -1.45038403        2.42377324        0.24822751
 C           -0.75105420        3.18143777       -0.70019854
 C           -2.81142238        0.38717219        0.36684149
 C           -2.61555214        1.74131758       -0.11914163
 C           -1.97355352       -1.52720145       -0.89543950
 C           -2.87869368       -0.47290475       -0.79862372
 C            0.00898547       -2.34037891       -2.09885896
 C            0.90052026       -1.30779401       -2.60227339
 C           -1.32051835       -1.76015960       -2.10860049
 C            0.49240242        0.91641838       -3.51937799
 C            0.09448379       -0.40831816       -3.40776113
 C           -1.30536470       -0.73026215       -3.13848744
 C           -0.16568412        3.10246534       -2.97366142
 C           -1.26371191        3.34611243       -2.05179957
 C           -0.51003689        1.93747152       -3.76802734
 C           -3.09360501        1.75933706       -1.49293070
 C           -3.13094496        0.37912579       -1.95191067
 C           -2.26393267        0.27611525       -3.10980252
 C           -2.38437089        2.53985905       -2.48452223
 C           -1.90468540        1.62636553       -3.51227546
