54
Modified xyz file
 C            1.52943239       -0.03732199        3.71964856
 C            0.72120070       -1.21846571        3.49844822
 C            1.25820393       -1.93729285        2.35253121
 C            2.60264278       -0.05461374        2.74564627
 C            2.39406390       -1.18355930        1.85403179
 C            2.66717566        1.26619525        2.15796113
 C            0.69587196        1.11744084        3.42666259
 C            1.38294248        1.90680920        2.42675440
 C           -0.66141090       -0.78787317        3.43712491
 C           -0.63755745        0.63434156        3.12794553
 C           -1.53674162       -1.59127167        2.72838064
 C            0.35267640       -2.49010018        1.45217351
 C           -0.96868772       -2.62911730        1.88558910
 C            0.63141460       -2.44064517        0.07837942
 C            2.52907196       -0.97579852        0.48531829
 C            1.70220395       -1.67128616       -0.40148451
 C            3.18929052        1.36838793        0.87799641
 C            3.20496594        0.16874675        0.04900107
 C            2.71241950        2.45183706        0.04150117
 C            0.65714534        2.43504862        1.36053543
 C            1.37221798        2.95211941        0.27993289
 C           -1.28293783        1.08634559        1.97672040
 C           -0.69434706        2.09704805        1.19556251
 C           -2.56243574       -0.95771358        1.92363276
 C           -2.37022025        0.35031873        1.48458810
 C           -2.00627430       -3.01517171        0.95048106
 C           -3.01199907       -1.96176057        0.97138967
 C           -0.27121286       -2.99540591       -0.83300063
 C           -1.63917414       -3.25464151       -0.42534103
 C           -0.34874172       -2.45168686       -2.17410663
 C            1.84536063       -1.46157773       -1.77543132
 C            0.74377725       -1.76647188       -2.67468443
 C            3.10124644        0.59173508       -1.33818064
 C            2.78156584        2.01137247       -1.34002362
 C            2.47169104       -0.23984130       -2.25233366
 C            0.72757691        3.10788039       -1.01357767
 C            1.57459843        2.46758020       -2.01201130
 C           -1.38701791        2.61683967        0.10358107
 C           -0.65142848        2.98457548       -1.09346011
 C           -3.03336287        0.76522142        0.33363495
 C           -2.61604756        1.98395013       -0.32548604
 C           -3.27312859       -1.56334740       -0.40120984
 C           -2.50443674       -2.43998390       -1.26628851
 C           -1.67234759       -1.85683142       -2.30581774
 C           -3.33763552       -0.20966491       -0.70421965
 C           -1.24910115        2.27307106       -2.21334259
 C           -2.49773734        1.69976427       -1.74899003
 C           -1.78779871       -0.49812026       -2.60497920
 C           -2.73577159        0.27835338       -1.93560054
 C            0.49956777       -0.58513129       -3.48108829
 C            1.58472085        0.34957022       -3.24344251
 C            1.00414001        1.65842778       -2.98810547
 C           -0.75656096        0.12460927       -3.30890812
 C           -0.44306951        1.52710622       -3.06403898
