54
Modified xyz file
 C            1.44548870       -0.01741569        4.00460513
 C            0.59018904       -1.15786856        3.71716819
 C            1.33031623       -2.04631306        2.85347300
 C            2.55969132       -0.06317003        3.07444880
 C            2.57872303       -1.38422069        2.49571174
 C            2.44911906        1.07575064        2.18161552
 C            0.67942276        1.18146621        3.71938435
 C            1.33446552        1.89669768        2.63881350
 C           -0.68487825       -0.64418354        3.25430709
 C           -0.69917768        0.78333915        3.52787124
 C           -1.23923828       -1.10417657        2.05619449
 C            0.71149671       -2.49082222        1.61946753
 C           -0.55879327       -2.05083535        1.26694403
 C            2.72210883       -1.49721434        1.05988602
 C            1.73945934       -2.46499003        0.60440020
 C            2.64740949        0.91242479        0.80946201
 C            2.93382660       -0.35969005        0.27940019
 C            2.18143967        1.92660780       -0.02462879
 C            0.53864033        2.54580838        1.69450927
 C            1.05071785        2.73255759        0.40916983
 C           -1.48871956        1.58713848        2.72394530
 C           -0.84135532        2.60918960        1.90970896
 C           -2.30431808       -0.38247812        1.50433128
 C           -2.47697462        0.95318298        1.87186993
 C           -2.91334639       -0.84784059        0.33940451
 C           -0.97232624       -2.26700694       -0.04664263
 C           -2.28347344       -1.93872468       -0.37546921
 C            1.35725781       -2.40913494       -0.72969990
 C           -0.00674580       -2.47725542       -1.05034653
 C            2.90395097       -0.55653074       -1.10147234
 C            2.22274083       -1.74186965       -1.59432503
 C            2.04740517        1.70254921       -1.45085762
 C            2.55118674        0.53509470       -1.99430255
 C            0.16017954        2.89828798       -0.73467343
 C            0.72070516        2.15467560       -1.84676772
 C           -1.73660317        2.89646411        0.80038979
 C           -2.81782103        1.92545467        0.85108193
 C           -1.21028478        2.90405192       -0.54979202
 C           -3.38146456        0.11027282       -0.65861822
 C           -3.05933805        1.44839268       -0.49372956
 C           -2.04081238        2.02928043       -1.36162320
 C           -2.69029851       -1.83755025       -1.76099699
 C           -3.16424213       -0.47951673       -1.96437398
 C           -0.37884501       -2.50799649       -2.39852802
 C           -1.71520033       -2.11085334       -2.79216304
 C            1.81933221       -1.47945802       -2.95948367
 C            1.88051587       -0.03867159       -3.15089587
 C            0.50876725       -1.92334290       -3.38666542
 C           -0.08921961        1.32319191       -2.62289486
 C           -1.46965877        1.24117462       -2.36634301
 C           -2.21907733        0.16607142       -2.85457852
 C           -1.57700984       -0.90126019       -3.59276060
 C            0.53519867        0.40659277       -3.47169638
 C           -0.18053225       -0.76532739       -3.93323472
