54
Modified xyz file
 C            1.33258793        0.04915469        3.78168317
 C            2.46244420       -0.15921246        2.90193646
 C            2.38716022       -1.51773586        2.38894792
 C            0.47974006       -1.12479517        3.69451609
 C            1.18317414       -2.13582585        2.92263002
 C           -0.83011704       -0.68898314        3.23433286
 C            0.49716872        1.21288490        3.56979086
 C           -0.86581127        0.74879587        3.34884263
 C            0.81677905        2.13785117        2.49309860
 C            2.64882239        0.72841797        1.76798182
 C            1.90646021        1.90629619        1.64990753
 C            2.57063716       -1.46687770        0.94276770
 C            2.85211968       -0.09385727        0.58333105
 C            1.73389855       -2.22167246        0.13306438
 C            0.43649206       -2.94149337        2.07609780
 C            0.94824818       -3.20003880        0.74630904
 C           -1.38168929       -1.31126305        2.11567187
 C           -0.96575645       -2.61594880        1.87429996
 C           -1.90011045       -0.53502010        1.05616079
 C           -1.41281108        1.50894714        2.25190428
 C           -0.45220521        2.54566696        1.91231767
 C           -2.06760203        0.85226546        1.21708480
 C           -0.47353958        3.06262019        0.62165048
 C            1.92049849        2.54588526        0.41528676
 C            0.75128448        3.29976656       -0.00728844
 C            2.43022826        0.40524359       -0.64219606
 C            2.36401382        1.78946885       -0.74402833
 C            1.38748283       -1.74038417       -1.13770732
 C            1.63220402       -0.39381827       -1.48074898
 C            0.62021167       -2.55052766       -1.97790028
 C           -0.16023599       -3.78920174        0.02617045
 C           -1.37321985       -3.28277236        0.65932217
 C           -0.27274870       -3.52883088       -1.38891900
 C           -2.21790149       -1.13917974       -0.17868507
 C           -2.08235442       -2.51994718       -0.34009962
 C           -1.62077850       -3.03765687       -1.61299394
 C           -2.47525293       -0.34901565       -1.30826122
 C           -2.40790606        1.63433485        0.12092151
 C           -1.62201938        2.83228893       -0.14017761
 C           -2.70216043        1.01087785       -1.15121963
 C           -1.62446194        3.06524197       -1.57342746
 C           -2.26990214        1.92443724       -2.20301583
 C            0.83657723        3.41228937       -1.45539299
 C            1.77191563        2.39336897       -1.91239674
 C           -0.36751842        3.29760442       -2.25171196
 C            1.05030773        0.16201339       -2.64105654
 C           -1.38785162        1.42609202       -3.24708582
 C            1.07569704        1.54063999       -2.84497774
 C           -0.16620025        2.21215223       -3.19741501
 C           -0.13420383       -1.94471676       -3.04910592
 C           -1.54629608       -2.12875604       -2.73160088
 C           -2.10222618       -0.80170098       -2.57572872
 C            0.05631449       -0.53784765       -3.31607085
 C           -1.26958762        0.05247394       -3.39681670
