54
Modified xyz file
 C            1.08217945        0.03794426        3.84802515
 C            2.32985893       -0.23231168        3.17084417
 C            2.29722979       -1.63253701        2.78626906
 C            0.25436740       -1.15677005        3.72361593
 C            0.89812646       -2.00206029        2.74004011
 C           -1.10163064       -0.71836892        3.48034322
 C            0.27529252        1.14582389        3.38356478
 C           -1.09835919        0.72995798        3.56940805
 C            0.60810163        1.80377179        2.19521692
 C            2.62909130        0.51222514        1.96333995
 C            1.62449964        1.28628757        1.37815053
 C            3.06893785       -1.74538679        1.57080632
 C            3.39819506       -0.39106826        1.13912525
 C            2.46220437       -2.39713212        0.42764358
 C            0.29904388       -2.20591308        1.49238551
 C            1.09079080       -2.66735072        0.43079685
 C           -1.72128608       -1.05210471        2.21565205
 C           -0.98874648       -1.70385607        1.22929603
 C           -2.07402963        1.22730698        2.62505293
 C           -2.53227300        0.08825710        1.83227530
 C           -0.35304790        2.63915358        1.63364493
 C           -1.75891310        2.39592331        1.95054551
 C           -0.27617075        2.94954994        0.21942445
 C            1.50481874        1.34549314       -0.02597113
 C            0.50799545        2.14518921       -0.60583377
 C            3.20849232       -0.35028053       -0.29310908
 C            3.03104491       -1.72731743       -0.72348218
 C            2.38847414        0.62652519       -0.84860625
 C            2.45721702       -1.95652770       -1.96348617
 C            0.48471027       -2.95499459       -0.78965642
 C            1.25889122       -2.77955464       -2.01079574
 C           -1.45350203       -1.64382397       -0.08228185
 C           -0.85366943       -2.45273493       -1.04246296
 C           -2.82468215        0.28837033        0.48179836
 C           -2.35453085       -0.63796934       -0.46519714
 C           -2.52392919        2.69668278        0.76253635
 C           -1.61918983        3.30851993       -0.19218848
 C           -3.15428650        1.58670409        0.07840291
 C           -2.06958905        2.90804449       -1.50608395
 C           -3.14392118        1.93736429       -1.32587152
 C            0.17392684        1.99463506       -1.96210281
 C           -1.11336797        2.30540044       -2.40773297
 C            2.10934285        0.50580502       -2.20519295
 C            2.22629892       -0.80752748       -2.82210150
 C            0.93518740        1.14602168       -2.75901375
 C            0.37831501       -2.23590740       -3.02977118
 C           -0.94831861       -2.10127027       -2.45072962
 C            1.01445604       -1.05561515       -3.58125851
 C            0.25349731        0.17662903       -3.61166186
 C           -2.62572328       -0.44278521       -1.82182868
 C           -2.94883280        0.88555101       -2.29886895
 C           -1.84546130        1.29661925       -3.14792406
 C           -1.73632111       -1.01721873       -2.81497302
 C           -1.13080545        0.09863060       -3.54001770
