54
Modified xyz file
 C            1.19838530        0.00873435        4.07472754
 C            2.36417363       -0.05889006        3.21038432
 C            2.35671781       -1.35514168        2.55152334
 C            0.38958588       -1.16896503        3.81672890
 C            1.16031713       -2.06659664        2.96997277
 C           -0.91473660       -0.72174281        3.34829229
 C            0.32521328        1.16418485        3.99445222
 C           -0.98793140        0.70649680        3.55775928
 C            0.70453492        2.27551680        3.14230501
 C            2.56285929        0.95688923        2.18812330
 C            1.81118981        2.12582875        2.20715274
 C            2.58725921       -1.14299659        1.12808577
 C            2.78781788        0.28031138        0.92029824
 C            1.83519676       -1.86686310        0.20187003
 C            0.47520934       -2.80467596        2.01736218
 C            1.02761919       -2.90037235        0.67797779
 C           -1.41864292       -1.27420158        2.17386891
 C           -0.93771731       -2.53049930        1.82596125
 C           -1.94832558       -0.43940971        1.17163301
 C           -1.40688564        1.54465898        2.45590555
 C           -0.46999399        2.64202657        2.37024469
 C           -1.81664971        0.95516219        1.26610121
 C            1.39126630        2.70915492        0.94720159
 C           -0.02290856        3.03440153        1.05025443
 C            2.32437404        0.84962511       -0.25903136
 C            1.83559118        2.16457148       -0.25466357
 C            1.58573019       -1.30961545       -1.06369871
 C            2.01480548        0.00137090       -1.32507003
 C            0.74463433       -1.97829307       -1.97325655
 C           -0.05028584       -3.39943769       -0.14750401
 C           -1.29628603       -3.09831165        0.54828829
 C           -0.18578216       -2.89095129       -1.49158133
 C           -2.42876899       -0.99723975       -0.02522232
 C           -2.10827529       -2.31429693       -0.35635021
 C           -1.59599792       -2.60371734       -1.68379576
 C           -2.85509806       -0.14940056       -1.04839437
 C           -1.79095359        1.72459190        0.10027114
 C           -0.82173134        2.72803965       -0.04707380
 C           -2.47057064        1.25066310       -1.01474398
 C            1.19683090        2.63055557       -1.39962465
 C           -0.22757805        2.90644067       -1.29353255
 C            1.84308728        0.56023130       -2.58570590
 C            1.41967130        1.94065032       -2.65287635
 C            0.47217799       -1.41406356       -3.21656962
 C            1.09977457       -0.16704704       -3.59102171
 C           -1.95588262       -1.77255984       -2.73320780
 C           -2.76218931       -0.60162010       -2.43087091
 C           -0.91363045       -1.36008001       -3.66076465
 C           -2.02709276        1.62831667       -2.34759238
 C           -0.87473188        2.39298480       -2.48586447
 C            0.17756617        1.98093565       -3.40484197
 C            0.06495074        0.71823905       -4.11056586
 C           -2.27185495        0.50414129       -3.23788495
 C           -1.19603827        0.00226533       -4.07543600
