54
Modified xyz file
 C            1.22697146        0.07942400        3.82489909
 C            2.41455911       -0.05729140        3.00689152
 C            2.41408885       -1.40445384        2.46691362
 C            0.38222476       -1.08187618        3.57395768
 C            1.06940225       -1.93295445        2.62609694
 C           -0.94196489       -0.60257653        3.24049288
 C            0.40823607        1.26176722        3.65475022
 C           -0.96982092        0.82172754        3.52915443
 C            0.67099196        2.14685396        2.53336425
 C            2.61007523        0.84830046        1.88717500
 C            1.63985250        1.80753029        1.58436347
 C            2.97799878       -1.34173634        1.12834550
 C            3.19950214        0.06471077        0.81528139
 C            2.44523530       -2.17884389        0.15611946
 C            0.39555631       -2.38428456        1.49445566
 C            1.16311097       -2.81571716        0.41357214
 C           -1.56338013       -1.06025519        2.08215604
 C           -0.95279369       -2.04934137        1.29701391
 C           -2.58726077       -0.28536770        1.53961728
 C           -1.62844919        1.70960650        2.58379626
 C           -0.62084866        2.63803851        2.08687111
 C           -2.54493369        1.16018992        1.69528942
 C           -0.72863406        3.14194566        0.79879444
 C            1.50824527        2.27043027        0.27059350
 C            0.43976647        3.10257826       -0.06218052
 C            3.05827655        0.50929350       -0.49203173
 C            2.28492184        1.71265491       -0.74706153
 C            2.44776175       -1.75825985       -1.23493920
 C            2.75837746       -0.44064116       -1.55406711
 C            0.53390585       -3.07983736       -0.86594762
 C            1.33152671       -2.41872968       -1.89449497
 C           -1.61783286       -2.52653306        0.16391543
 C           -0.85143642       -3.07556169       -0.94400282
 C           -3.08235607       -0.57027624        0.20744328
 C           -2.72168364       -1.76210720       -0.39789571
 C           -2.70815853        1.74712822        0.37426646
 C           -1.87875752        2.78861265       -0.02033306
 C           -3.01447764        0.66811722       -0.55840386
 C           -0.03784285        3.14237335       -1.43366565
 C           -1.46807912        2.87408007       -1.40886645
 C            1.75380928        1.61487920       -2.09995473
 C            1.99095476        0.25969832       -2.57434860
 C            0.56605815        2.26151238       -2.41753215
 C            0.70974092       -1.80590925       -2.97829815
 C            0.99874046       -0.41243498       -3.28278615
 C           -1.49714481       -2.67654014       -2.18193094
 C           -2.59819062       -1.79154943       -1.84264257
 C           -0.70625882       -2.02820026       -3.21200862
 C           -2.46959980        0.66177847       -1.84613238
 C           -1.72160179        1.75138338       -2.29428613
 C           -0.50731879        1.52198034       -3.06371679
 C           -0.26232712        0.25408281       -3.57698208
 C           -2.40090732       -0.53880823       -2.55156689
 C           -1.31783140       -0.74059104       -3.49951395
