54
Modified xyz file
 C            1.40428481       -0.12808213        4.03150286
 C            0.55576121       -1.29597466        4.03150286
 C            1.03078807       -2.17518399        2.97613661
 C            2.38725393       -0.30816889        2.97613661
 C            1.99876373       -1.45218686        2.18415652
 C            2.48334783        0.95108541        2.29796299
 C            0.57938037        1.00530697        3.64755304
 C            1.35614644        1.77004871        2.71662359
 C           -0.77706537       -0.86168041        3.64755304
 C           -0.69374109        0.50403241        3.18411737
 C           -0.13713929       -2.65570569        2.29796299
 C           -1.26434406       -1.83674704        2.71662359
 C           -0.05837691       -2.90437399        0.93843422
 C            1.75598800       -1.27579996        0.81418972
 C            0.81166336       -2.09779060        0.16771147
 C            2.74418435        0.95302066        0.93843422
 C            2.24593519       -0.12368478        0.16771147
 C            2.69607935        2.22138226        0.38583349
 C            0.69924595        2.43874078        1.69793024
 C            1.56886974        3.04033184        0.80449099
 C           -1.10202113        0.80066522        1.87562403
 C           -0.48365099        1.85945280        1.18147414
 C           -2.10330143       -1.41863476        1.69793024
 C           -1.91790108       -0.11462309        1.18147414
 C           -1.27952574       -3.25056870        0.38583349
 C           -2.40672000       -2.43159800        0.80449099
 C           -1.36541453       -3.42293024       -1.03464237
 C            0.55069612       -1.90339076       -1.20319755
 C           -0.40669311       -2.70472921       -1.84207789
 C            1.98040664        0.06443696       -1.20319755
 C            1.03682609       -0.75329825       -1.85609129
 C            2.83346381        2.35633000       -1.03464237
 C            2.44667525        1.22259543       -1.84207789
 C            1.02559514        3.66978483       -0.36319496
 C            2.01046501        3.49160654       -1.41711512
 C           -0.87768116        2.14095832       -0.14170589
 C           -0.24584367        3.17881726       -0.84206562
 C           -2.30739075        0.17313188       -0.14170589
 C           -1.69287360        1.22994467       -0.84229884
 C           -3.17324645       -2.10942482       -0.36319496
 C           -2.69944730       -2.99103160       -1.41711512
 C           -3.09920474       -0.74849733       -0.84206562
 C           -1.15244927       -2.15136624       -2.94866181
 C           -2.56622430       -2.19561573       -2.61441094
 C           -2.96030802       -0.83787858       -2.27721159
 C            0.38160189       -0.27725001       -3.01608790
 C           -1.66335491        1.20849808       -2.25659587
 C           -0.86812339       -0.79411884       -3.31176879
 C           -1.99532734        0.02484207       -2.89310798
 C            1.68994447        1.76085312       -2.94866181
 C            1.29514772        3.11910692       -2.61441094
 C           -0.11791561        3.07433895       -2.27721159
 C            0.48698702        1.07103063       -3.31176879
 C           -0.64021627        1.88999245       -2.89310798
