54
Modified xyz file
 C            1.52465980        0.00767149        3.66089689
 C            0.72981699       -1.20350633        3.57175609
 C            1.35077827       -2.07835824        2.59171973
 C            2.59211799       -0.09129016        2.68161493
 C            2.58732543       -1.43941970        2.15188154
 C            2.45829522        1.01548144        1.75032735
 C            0.67397096        1.11759231        3.27405691
 C            1.29466019        1.78742978        2.14717029
 C           -0.65353120       -0.81448463        3.37319746
 C           -0.67829209        0.61644625        3.10800219
 C           -1.46170072       -1.64293294        2.61229634
 C            0.53864689       -2.74081590        1.66738003
 C           -0.84750737       -2.70993278        1.83109692
 C            1.07639226       -3.14515172        0.44394859
 C            3.01353870       -1.62563311        0.84629094
 C            2.39772928       -2.67927841        0.06424359
 C            2.67227988        0.78620665        0.39156902
 C            3.15664856       -0.46227049       -0.02244730
 C            2.06554645        1.63481000       -0.54238633
 C            0.47368545        2.28326882        1.14684353
 C            1.01248204        2.46371236       -0.12386476
 C           -1.43085993        1.10068920        2.03929111
 C           -0.91049956        2.15696939        1.28258293
 C           -2.49896742       -1.04782109        1.78952058
 C           -2.46776571        0.31790816        1.51483688
 C           -1.70576429       -2.96020324        0.68505869
 C           -2.76632307       -1.96821605        0.69835611
 C            0.24918708       -3.13669161       -0.75745073
 C           -1.11905459       -2.96673708       -0.64116076
 C            2.33427540       -2.23262542       -1.31706182
 C            2.93399818       -0.91192567       -1.38987965
 C            0.96600367       -2.39743299       -1.77984569
 C            2.24934613        1.36338732       -1.89861167
 C            2.41530621       -0.01369209       -2.30779198
 C            1.37436284        1.96148065       -2.88783453
 C            0.28847143        3.22282864       -1.04214249
 C            0.42820340        2.96598790       -2.46060760
 C           -1.73290657        2.80505489        0.36767534
 C           -1.12658626        3.44084558       -0.79195577
 C           -3.16133820        0.77037864        0.39314751
 C           -2.92410160        2.11958909       -0.08709511
 C           -2.89187163       -1.42795608       -0.64300207
 C           -1.76743284       -1.92469132       -1.42173079
 C           -3.24894479       -0.09655690       -0.77624999
 C            0.35196670       -1.33006110       -2.43481636
 C            1.18352351       -0.36455939       -2.99771690
 C            0.61640233        0.87155507       -3.49120478
 C           -0.99438242       -1.02924524       -2.16790057
 C           -0.87750808        2.55614348       -2.94677677
 C           -1.85584019        3.00140178       -1.97441199
 C           -2.86346380        2.05713144       -1.53785448
 C           -2.70996740        0.65624420       -1.89034127
 C           -0.78337372        1.13673038       -3.24885361
 C           -1.53163776        0.22454480       -2.50376575
