54
Modified xyz file
 C            1.50545605       -0.13927092        3.78736226
 C            0.71404134       -1.34437736        3.62704537
 C            1.33437087       -2.16409425        2.59644693
 C            2.60193081       -0.20471439        2.84142255
 C            2.43982145       -1.40501791        2.03747497
 C            2.65224887        1.06786012        2.14733799
 C            0.67249816        0.98736160        3.40244270
 C            1.34822786        1.68967714        2.32584026
 C           -0.67028270       -0.94035881        3.45543770
 C           -0.66934999        0.48656389        3.16490276
 C           -1.50699160       -1.76851307        2.71937281
 C            0.51327899       -2.88774910        1.74527507
 C           -0.91797729       -2.88891141        2.00019478
 C            0.70244213       -2.76547839        0.30780865
 C            2.58503426       -1.28476473        0.65546037
 C            1.62105411       -1.84983658       -0.19541723
 C            3.19862831        1.07152812        0.87577217
 C            3.34538869       -0.20942067        0.19956996
 C            2.62311058        1.95776515       -0.11363794
 C            0.60909996        2.05301400        1.20027180
 C            1.26580849        2.27297567       -0.01818023
 C           -1.37064406        0.94799014        2.05495991
 C           -0.77842813        1.90747082        1.22233827
 C           -2.49873152       -1.16813409        1.84216862
 C           -2.46175317        0.20489974        1.59508998
 C           -1.59503540       -3.00502571        0.72196851
 C           -0.60004793       -2.87112318       -0.32693318
 C           -2.71244812       -2.08246291        0.72840612
 C           -0.88747606       -2.05685447       -1.41828824
 C            1.42700005       -1.33669130       -1.48459216
 C            0.15738190       -1.41027481       -2.08441312
 C            3.39807569        0.07050592       -1.22061869
 C            3.16214910        1.49926954       -1.37568054
 C            2.45021903       -0.59968771       -2.08063964
 C            2.36540430        1.67432539       -2.56637965
 C            2.13808382        0.35091618       -3.12762534
 C            0.51960677        2.54485259       -1.17775460
 C            1.06450510        2.29948100       -2.44320038
 C           -1.51856714        2.46916415        0.19350189
 C           -0.86115543        2.72766669       -1.07472910
 C           -3.24196875        0.70811360        0.55838988
 C           -2.84096366        1.94481200       -0.08445208
 C           -3.11992444       -1.54939594       -0.48483061
 C           -2.20679561       -1.63039228       -1.61868196
 C           -3.67481560       -0.20857729       -0.48206632
 C           -1.73184937        2.23059014       -2.13462734
 C           -2.96152851        1.76580832       -1.52235751
 C           -2.48118749       -0.49182651       -2.48447471
 C           -3.38008241        0.39888019       -1.76744777
 C           -0.15285312       -0.61341874       -3.18828205
 C            0.80637109        0.34825384       -3.68749837
 C            0.23530564        1.66526718       -3.44996705
 C           -1.44115631        0.04845437       -3.22938818
 C           -1.17452959        1.48290504       -3.16409832
