54
Modified xyz file
 C            1.31345647        0.01171453        3.79393240
 C            2.42805393       -0.14998483        2.88441021
 C            2.42064971       -1.52813172        2.42208314
 C            0.47139529       -1.16872599        3.67296409
 C            1.17577060       -2.13864028        2.85072524
 C           -0.84956426       -0.72481348        3.25362609
 C            0.46092971        1.17026306        3.63417874
 C           -0.90847483        0.69607428        3.49649699
 C            0.69699435        2.07212280        2.52019343
 C            2.51782471        0.70809817        1.71120306
 C            1.56127561        1.69474326        1.48918856
 C            2.74391979       -1.51584072        1.00623703
 C            2.93267511       -0.12773057        0.60432180
 C            2.07933021       -2.37976789        0.13636820
 C            0.44549041       -2.87027016        1.92548241
 C            1.02616526       -3.16124763        0.62237088
 C           -1.39364634       -1.25112252        2.08287122
 C           -0.94429732       -2.51001441        1.69034510
 C           -2.04540399       -0.40830591        1.15521225
 C           -1.54751469        1.53345593        2.50987778
 C           -0.60890235        2.59440707        2.17764884
 C           -2.27224748        0.94780970        1.47657554
 C           -0.76306700        3.23020492        0.95808061
 C            1.27307818        2.08666278        0.17809626
 C            0.27892624        3.04665919       -0.04043248
 C            2.59250488        0.23256369       -0.69319265
 C            1.81596326        1.38220018       -0.90815587
 C            2.17115323       -2.11401764       -1.23104181
 C            2.59591187       -0.78756003       -1.64213519
 C            1.10565254       -2.52302432       -2.13833527
 C           -0.08613675       -3.49505073       -0.25147516
 C           -1.30522735       -3.02909692        0.39353265
 C           -0.08277658       -2.99943076       -1.61291499
 C           -2.45354097       -0.92028339       -0.09576110
 C           -1.98742136       -2.15550047       -0.52767853
 C           -1.30681886       -2.23322818       -1.81139356
 C           -2.89623278       -0.05930702       -1.09124327
 C           -2.76481781        1.82309719        0.51095917
 C           -2.03213776        3.05662652        0.27583852
 C           -3.18432209        1.31618201       -0.77335260
 C           -0.34617157        3.16198092       -1.34911410
 C           -1.78638334        3.16523825       -1.14967924
 C           -2.58699757        2.15062887       -1.80663654
 C            1.43212993        1.72864999       -2.20667818
 C            0.19128537        2.45056504       -2.41217352
 C            2.07401262       -0.55210426       -2.97105540
 C            1.04556968       -1.55212950       -3.21467670
 C            1.50953496        0.74451134       -3.26917808
 C           -1.30984152       -1.11098474       -2.64462043
 C           -2.23708679       -0.09707726       -2.38855333
 C           -1.94382916        1.27760646       -2.77082612
 C           -0.67104933        1.59668895       -3.22472524
 C           -0.20093309       -0.84583126       -3.45333462
 C            0.15518904        0.53046751       -3.75445623
