54
Modified xyz file
 C            1.33408485       -0.15872185        3.66490721
 C            2.53600194       -0.44762916        2.90692845
 C            2.36532844       -1.74412311        2.27395246
 C            0.47373830       -1.32659904        3.59801517
 C            1.13517534       -2.33031814        2.77537135
 C           -0.86185439       -0.87795328        3.23041407
 C            0.54184034        1.00260046        3.29451698
 C           -0.77089892        0.53051615        2.88270301
 C            1.13889857        2.01963552        2.56126336
 C            2.94526333        0.49576621        1.88445274
 C            2.43490984        1.78679701        1.92660420
 C            2.52132255       -1.56752741        0.83938727
 C            2.96338435       -0.20663447        0.60583160
 C            1.58137273       -2.13049001       -0.01516934
 C            0.36141115       -3.08475946        1.90414284
 C            0.70374833       -3.09347496        0.48804380
 C           -1.65338068       -1.71226017        2.45668723
 C           -1.08375233       -2.96406673        1.98610932
 C           -2.41504325       -1.14343100        1.35712773
 C           -1.32010600        0.99347419        1.68451992
 C           -2.15635651        0.15878018        0.92868788
 C            0.32579611        2.75894700        1.61295395
 C           -0.87391165        2.21043380        1.15658019
 C            2.46220375        2.56434640        0.70280793
 C            1.23845529        3.34307231        0.64992691
 C            2.54552731        0.45806813       -0.54548908
 C            2.56380174        1.85376606       -0.55668329
 C            1.30711684       -1.51449742       -1.23913970
 C            1.79891738       -0.22905798       -1.50944843
 C            0.38113653       -2.10330816       -2.10060258
 C           -0.50725406       -3.42310089       -0.24574522
 C           -1.62499281       -3.23106238        0.66596711
 C           -2.59843851       -2.19337648        0.36838075
 C           -0.64186160       -2.97911161       -1.55282465
 C           -2.78539396       -1.83295021       -0.95784245
 C           -1.92724772       -2.43940319       -1.96444736
 C           -2.57271325        0.54786935       -0.34724571
 C           -2.90699481       -0.42361777       -1.29343031
 C           -1.41253700        2.68229370       -0.03891922
 C           -2.34426421        1.85009488       -0.77468176
 C            0.81969082        3.40855093       -0.73691772
 C            1.73962023        2.57537790       -1.50905959
 C           -0.54129393        3.34171151       -1.00570265
 C            1.38454216        0.44908260       -2.65836820
 C            1.27603804        1.89930834       -2.63001323
 C           -0.24169556       -1.31287640       -3.14942421
 C           -1.68081720       -1.44905410       -2.99667929
 C           -2.46189466       -0.26826283       -2.67196532
 C            0.27382987       -0.06072814       -3.44537311
 C           -2.14131624        2.10169634       -2.19207090
 C           -0.96937158        2.94844791       -2.33425822
 C           -0.01932263        2.25750190       -3.18431490
 C           -1.98814316        0.96870931       -3.08717161
 C           -0.65229950        1.04154821       -3.66329542
