54
Modified xyz file
 C            1.31588790       -0.10797856        3.65997514
 C            2.53823659       -0.34300924        2.91580052
 C            2.41361557       -1.62866020        2.24656564
 C            0.44922407       -1.26062963        3.47434556
 C            1.12152393       -2.19563189        2.59283214
 C           -0.87065984       -0.77723377        3.10857113
 C            0.54103713        1.08709764        3.37678473
 C           -0.82503235        0.67730905        3.07475846
 C            1.12097026        2.12054649        2.65259678
 C            2.95982492        0.63494190        1.92664413
 C            2.33079457        1.87628846        1.87349248
 C            2.74602903       -1.43696855        0.84382237
 C            3.24553773       -0.08154780        0.69330535
 C            1.91218354       -1.97418218       -0.13582743
 C            0.38161271       -2.82139505        1.59993718
 C            0.90702737       -2.86457161        0.24458448
 C           -1.60584976       -1.44710194        2.13579110
 C           -1.04677967       -2.55651675        1.49192148
 C           -2.66445767       -0.76584799        1.54381654
 C           -1.57643227        1.36075527        2.11408242
 C           -2.60718143        0.68577482        1.46449405
 C            0.25994194        2.98634621        1.87328908
 C           -1.07979866        2.53172866        1.54313956
 C            2.18550694        2.55729673        0.59584510
 C            0.94405222        3.30400333        0.63016308
 C            3.08797011        0.55718288       -0.52806670
 C            2.54517795        1.90855927       -0.57887331
 C            1.89304880       -1.40915303       -1.41532009
 C            2.52145997       -0.18379717       -1.64215491
 C            1.01509096       -1.90714516       -2.37698844
 C           -0.21802885       -3.10893071       -0.64182344
 C           -1.43699480       -2.89387464        0.12713361
 C           -0.14295306       -2.67704456       -1.95802617
 C           -3.24433747       -1.25875900        0.30751022
 C           -2.52396823       -2.25635270       -0.45788100
 C           -2.96766893        1.06697225        0.10676378
 C           -3.48875004       -0.11553426       -0.55711272
 C           -1.29109320        2.78026977        0.12459150
 C           -0.00618699        3.14038019       -0.45516608
 C           -2.15235707        1.95459970       -0.59408164
 C            1.67857488        1.99477275       -1.74947354
 C            1.90588472        0.78751445       -2.53240137
 C            0.38970099        2.52841624       -1.64005656
 C            0.59748095       -1.04857654       -3.47399012
 C            0.93987702        0.36278585       -3.43312798
 C           -1.31428893       -2.09801270       -2.59741115
 C           -2.43418875       -1.78433738       -1.83133860
 C           -3.00756923       -0.44312181       -1.88355877
 C           -0.84699704       -1.16070302       -3.60519607
 C           -1.91490383        1.75883675       -1.95786142
 C           -0.60812545        2.09207114       -2.50578438
 C           -0.29201492        1.12085115       -3.53843710
 C           -2.38294781        0.55058887       -2.62597145
 C           -1.39770654        0.18072806       -3.62662717
