54
Modified xyz file
 C            1.13586828       -0.11743550        3.83501130
 C            2.37602207       -0.33669731        3.11662708
 C            2.24174821       -1.59060545        2.38706691
 C            0.29325741       -1.27845954        3.59913845
 C            0.85851098       -1.99754584        2.47118427
 C           -1.07120612       -0.80988286        3.50242714
 C            0.34041329        1.06197454        3.53959116
 C           -1.04801174        0.64648165        3.51738491
 C            0.78613556        1.98129194        2.59643241
 C            2.83932525        0.66477764        2.17214092
 C            2.08173143        1.81078857        1.94749466
 C            2.81575045       -1.39421751        1.07795062
 C            3.38862379       -0.05675428        1.03970920
 C            2.13815233       -1.85615126       -0.04479314
 C            0.11259855       -2.12412769        1.29678480
 C            0.76055983       -2.14061839        0.04543027
 C           -1.85335189       -1.21000880        2.35197840
 C           -1.28159613       -2.00715192        1.36489280
 C           -1.91448415        1.10869943        2.44378222
 C           -2.62459217       -0.05476255        1.93460681
 C           -0.14164945        2.52364909        1.61162763
 C           -1.46137105        2.06848133        1.54152679
 C            1.98113144        2.35650933        0.60059541
 C            0.59933109        2.74648733        0.37860233
 C            3.48729400        0.57793134       -0.19252365
 C            2.69513903        1.77784019       -0.43934820
 C            2.69556210       -1.51910512       -1.27394396
 C            3.39201753       -0.24906775       -1.38254208
 C            1.92502504       -1.68499441       -2.48195027
 C            0.01404197       -2.40097183       -1.11654258
 C            0.55420412       -2.13278847       -2.37323852
 C           -2.03310789       -2.19897351        0.21729394
 C           -1.36769575       -2.53547174       -1.02325110
 C           -3.11386734       -0.03106918        0.63177346
 C           -3.07185472       -1.22710964       -0.09162050
 C           -2.15083729        2.21041917        0.33971338
 C           -3.11933994        1.19400322       -0.03923009
 C           -0.02476055        2.47901760       -0.83693849
 C           -1.41048192        2.55843409       -0.86306840
 C            2.04881200        1.62628057       -1.73339659
 C            2.71120434        0.52498921       -2.40357298
 C            1.90825889       -0.39924984       -3.17092382
 C            0.66097055        1.76481882       -1.83255945
 C           -0.20817743       -1.32431727       -3.30952749
 C            0.51852922       -0.07359804       -3.40843135
 C           -0.04181301        1.06714668       -2.83442616
 C           -2.20426288       -2.04276190       -2.11089089
 C           -3.26802862       -1.23713253       -1.53052135
 C           -1.58774527       -1.27295192       -3.17782483
 C           -3.25359059        1.25200074       -1.48661816
 C           -2.13567935        2.03253116       -1.99747068
 C           -1.42143853        1.21671621       -2.95313690
 C           -3.32073707        0.02030379       -2.24554716
 C           -2.23053790        0.03240842       -3.20692848
