54
Modified xyz file
 C            1.44325264       -0.15356475        4.55932188
 C            0.59203835       -1.32516071        4.55932188
 C            1.08250345       -2.22257359        3.52642616
 C            2.44830505       -0.34270895        3.52642616
 C            2.06327550       -1.49905740        2.73661298
 C            2.58295353        0.92562973        2.85487799
 C            0.63010896        0.97828893        4.14645149
 C            1.44332948        1.75360174        3.24350550
 C           -0.73569369       -0.90157714        4.14645149
 C           -0.63616832        0.46220334        3.65717866
 C           -0.08214965       -2.74257010        2.85487799
 C           -1.22176102       -1.91458065        3.24350550
 C           -0.07975434       -2.78239004        1.40727216
 C            1.87685270       -1.36361331        1.35143713
 C            0.96748319       -2.20472447        0.68692979
 C            2.62156473        0.93565669        1.40727216
 C            2.39578632       -0.23883386        0.68692979
 C            0.84331064        2.22762114        2.01369976
 C            1.87384217        2.10478201        1.01059661
 C           -1.05079487        0.76344716        2.34983229
 C           -0.44465303        1.82486941        1.65558714
 C           -1.85799629       -1.49040887        2.01369976
 C           -1.42271757       -2.43254321        1.01059661
 C           -1.87295929       -0.14102550        1.65558714
 C           -1.59978421       -2.05980125       -0.30274705
 C            0.75192275       -2.02677943       -0.68321070
 C           -0.53860930       -2.27620871       -1.16933400
 C            2.15993869       -0.08881174       -0.68321070
 C            1.57534566       -1.14455562       -1.38219280
 C            1.46462689        2.15799879       -0.30274705
 C            1.99836370        1.21563506       -1.16933400
 C           -0.82937616        2.08304278        0.33621126
 C            0.15678187        2.55362470       -0.54131554
 C           -2.23738274        0.14508798        0.33621126
 C           -2.38019315       -0.93822185       -0.54131554
 C           -1.92587710        1.39923162       -0.18819345
 C           -2.75028652       -0.70739589       -1.86025079
 C           -0.80163388       -2.12316167       -2.52478130
 C           -2.03586967       -1.44295589       -2.89572237
 C            1.42151551       -1.03279147       -2.76399784
 C            0.25360991       -1.63021221       -3.38538702
 C            1.77152825        1.41849216       -2.52478130
 C            1.62879371        0.26256592       -3.38538702
 C           -0.17711181        2.83427527       -1.86025079
 C            0.74321428        2.38212500       -2.89572237
 C           -2.36699316        1.71972120       -1.47202682
 C           -2.89998186        0.66100581       -2.30993871
 C           -1.52479756        2.55378462       -2.30993871
 C           -1.74182704       -0.52801509       -3.98278574
 C           -0.32804114       -0.65861823       -4.30024848
 C            0.52501288        0.51550989       -4.30024848
 C           -0.03608197        1.81974159       -3.98278574
 C           -2.29490695        0.77039931       -3.62948313
 C           -1.44185853        1.94451973       -3.62948313
