54
Modified xyz file
 C            1.39549520        0.06017700        4.09756324
 C            0.63667079       -1.17576132        4.02723067
 C            1.49756056       -2.17571096        3.42492395
 C            2.56411019       -0.09515856        3.24756265
 C            2.72205488       -1.50962701        2.99504684
 C            2.41645639        0.81490744        2.11911944
 C            0.57834979        1.10955940        3.52128597
 C            1.33546598        1.72606229        2.44848280
 C           -0.64582232       -0.88040959        3.40737228
 C           -0.71886026        0.55351456        3.18137945
 C           -1.15526352       -1.73860460        2.44407670
 C            1.00005908       -2.95074422        2.30193586
 C           -0.31743998       -2.79264817        1.87905699
 C            3.00207436       -1.93369698        1.64086639
 C            2.05365056       -2.98389071        1.30877199
 C            2.52179786        0.34436685        0.80316464
 C            2.95527887       -0.95628637        0.56145119
 C            1.87992404        1.05487069       -0.22167619
 C            0.61344171        2.26306756        1.39754140
 C            1.18560412        2.21417879        0.13175664
 C           -1.32923820        1.04599253        2.02886656
 C           -0.77604338        2.19602488        1.47185893
 C           -1.96632785       -1.19057552        1.36982678
 C           -2.04220934        0.18502649        1.18266990
 C           -0.64007673       -2.89843327        0.46100760
 C           -1.79443302       -2.04082714        0.21103956
 C            1.70150190       -2.81190632       -0.08581691
 C            2.43303154       -1.65687154       -0.58779742
 C            0.37954429       -2.97640060       -0.49401417
 C            1.60988960        0.43358868       -1.45767251
 C            1.85474000       -0.94048310       -1.62457880
 C            0.88792741        1.13469420       -2.44210250
 C            0.58353986        2.98079210       -0.85493635
 C            0.51327719        2.45795534       -2.20529531
 C           -1.49333872        2.84118971        0.47870761
 C           -0.72378669        3.52808089       -0.53972201
 C           -2.46387806        0.67076462       -0.06011395
 C           -2.48821730        2.05761391       -0.22607107
 C           -1.96224867       -1.49661896       -1.05522697
 C           -2.42699191       -0.17777695       -1.18477192
 C            0.08506361       -2.59191557       -1.79744474
 C            1.00620755       -1.67277228       -2.44223357
 C           -1.23656923       -2.07696688       -2.09215618
 C            0.30972134        0.44548279       -3.51546493
 C            0.27981634       -0.99756217       -3.48939693
 C           -1.11780026       -1.39160488       -3.36316885
 C           -2.66416567        0.33219861       -2.46762517
 C           -1.00149559        0.83819633       -4.00358169
 C           -1.91754120       -0.20848065       -3.58497099
 C           -0.70430151        2.98747305       -2.81066251
 C           -1.51859991        3.54782843       -1.75035712
 C           -2.63872423        2.64268543       -1.54498211
 C           -1.56365182        2.09063859       -3.55189777
 C           -2.69522964        1.76480315       -2.68882738
