54
Modified xyz file
 C            1.57699925        0.05896472        3.97748835
 C            0.76004679       -1.13853926        3.95188985
 C            1.45964948       -2.12739235        3.15385885
 C            2.64136680       -0.11272911        3.00042121
 C            2.55762327       -1.45569887        2.47514125
 C            2.55280338        0.98720969        2.06672333
 C            0.74902068        1.16792434        3.53333084
 C            1.48411860        1.87040421        2.50742474
 C           -0.58605353       -0.75374049        3.55660306
 C           -0.55310593        0.65131512        3.17728420
 C           -1.33318525       -1.63125115        2.78443572
 C            0.70338526       -2.85463186        2.15395097
 C           -0.68459099       -2.80213945        2.20150161
 C            2.37012998       -1.63154859        1.04404788
 C            1.36872219       -2.66549918        0.86960641
 C            2.66645971        0.75110636        0.69646227
 C            2.34879207       -0.52261375        0.19341807
 C            2.44631463        1.85903614       -0.11233195
 C            0.77542303        2.52498627        1.50828174
 C            1.52999021        2.86628469        0.39320935
 C           -1.10017999        1.05439252        1.95849618
 C           -0.57643353        2.18430301        1.31805075
 C           -2.20510468       -1.08204266        1.76315073
 C           -1.94246305        0.18623970        1.25170811
 C           -1.41627129       -3.13649193        0.99724167
 C           -2.48198909       -2.15792748        0.84103165
 C            0.61097720       -2.66512746       -0.29617156
 C           -0.69197764       -3.16305637       -0.25790758
 C            1.71569737       -0.64774038       -1.05430589
 C            0.97044358       -1.80814737       -1.33796229
 C            2.14019314        1.67527412       -1.51330547
 C            1.75923048        0.41951545       -1.96554929
 C            0.88560848        3.49883081       -0.73432070
 C            1.36702643        2.83330302       -1.93367305
 C           -1.26680124        2.69368284        0.21727580
 C           -0.55832864        3.49324493       -0.76931769
 C           -2.33860493        0.50584592       -0.05461892
 C           -2.18243426        1.81807048       -0.49692920
 C           -2.56935038       -1.84407749       -0.57002010
 C           -1.63665294       -2.72196942       -1.26416703
 C           -2.65117518       -0.51142043       -0.97244244
 C            0.26660187       -1.91677491       -2.53639189
 C           -1.13818536       -2.29529605       -2.48333992
 C            1.06060742        0.34944864       -3.16969295
 C            0.40520296       -0.88445976       -3.54019122
 C            0.23191060        2.62585394       -2.81243614
 C           -0.96315755        3.04380321       -2.08896384
 C           -2.05549809        2.09711238       -1.91965398
 C            0.17970401        1.45002704       -3.54807648
 C           -2.55512485       -0.26227998       -2.34203262
 C           -1.87130708       -1.24725190       -3.16395870
 C           -0.92823611       -0.55143901       -4.01584864
 C           -2.17506062        1.05367318       -2.82512701
 C           -1.12277669        0.87143394       -3.81329806
