54
Modified xyz file
 C            1.57244556        0.03310879        3.88251330
 C            0.78441964       -1.18445423        3.84321335
 C            1.61953782       -2.20344721        3.24431023
 C            2.66647893       -0.12879179        2.93840145
 C            2.71873628       -1.52471110        2.56876994
 C            2.49021206        0.85912985        1.89117733
 C            0.73496911        1.11266999        3.39522835
 C            1.43791867        1.76327292        2.30808060
 C           -0.49658791       -0.86739020        3.22474955
 C           -0.58162779        0.57773814        3.10765280
 C           -0.98615468       -1.65605503        2.18213802
 C            1.01454274       -3.10221563        2.28577535
 C           -0.35463427       -2.86292403        1.86337614
 C            2.64364641       -1.87402166        1.16271728
 C            1.82771117       -3.06463225        1.08061880
 C            2.52001813        0.47907761        0.55057117
 C            2.45189085       -0.88127624        0.20210286
 C            2.11042710        1.42792144       -0.38834782
 C            0.67193797        2.33929681        1.30554118
 C            1.23100105        2.43864317        0.03390388
 C           -1.26114992        1.11510005        2.02275090
 C           -0.71662234        2.24148313        1.40230308
 C           -1.88240748       -1.09159890        1.26677833
 C           -2.11093688        0.29054630        1.28491535
 C           -2.31508171       -1.85393117        0.17766489
 C           -0.42084592       -3.34905935        0.50026810
 C            0.92185299       -3.19218001       -0.04516738
 C           -1.49487225       -2.96244879       -0.28445565
 C            1.93543053       -1.24683172       -1.04772465
 C            1.09493390       -2.36609567       -1.15445777
 C            2.18456421        1.07590104       -1.73283553
 C            1.98734550       -0.31640245       -2.08314672
 C            1.52897967        1.88544834       -2.74012359
 C            0.57630550        3.25125859       -0.89025452
 C            0.72154722        3.00566152       -2.31095249
 C           -1.49087914        2.92427866        0.47071259
 C           -0.82066159        3.57027125       -0.64750312
 C           -2.90353999        0.87319621        0.29675193
 C           -2.67880633        2.26964813       -0.04618605
 C           -2.86494051       -1.19720323       -0.99875220
 C           -3.13455867        0.15985712       -0.94652223
 C           -1.25377639       -2.75056336       -1.70003590
 C            0.08682765       -2.37913872       -2.11643165
 C           -2.16417676       -1.71658891       -2.15767467
 C            0.99819862       -0.36452383       -3.14906978
 C            0.67922531        1.00210634       -3.52153639
 C           -0.03605089       -1.28026420       -3.05501409
 C           -1.40954389       -0.79486482       -2.98951398
 C           -0.61374571        2.82401418       -2.85965851
 C           -1.56493031        3.26184763       -1.85886703
 C           -2.64910794        2.37261096       -1.49744118
 C           -2.66688074        1.01919885       -2.02599002
 C           -0.68911871        1.46414174       -3.36680003
 C           -1.64946589        0.57418572       -2.87852380
