54
Modified xyz file
 C            1.14123075       -0.06043697        3.85847603
 C            2.35611800       -0.37257381        3.14399118
 C            2.24351218       -1.75237640        2.69566630
 C            0.30248722       -1.25018911        3.81304723
 C            0.83464892       -2.08382788        2.75512498
 C           -1.06531640       -0.79922337        3.71495995
 C            0.32080842        1.03488491        3.38462884
 C           -1.03535828        0.65560919        3.72409839
 C            0.57101311        1.60265459        2.12986232
 C            2.69046491        0.41261336        1.97463108
 C            1.75519547        1.29518026        1.43373472
 C            2.91509707       -1.83707615        1.41758208
 C            3.36268453       -0.49509900        1.07493109
 C            2.17115566       -2.33303084        0.27690544
 C            0.12317416       -2.23289036        1.55888192
 C            0.81353090       -2.62196685        0.40012645
 C           -1.83826488       -1.18625626        2.55373179
 C           -1.20974122       -1.79031163        1.46456053
 C           -2.10899174        1.10530503        2.86574579
 C           -2.72900669       -0.08014686        2.29221566
 C           -0.45956520        2.30064230        1.48070227
 C           -1.78787818        1.98510667        1.75967682
 C           -0.20078979        2.92232081        0.26481489
 C            1.89542451        1.68844129        0.09810161
 C            1.08656646        2.72135525       -0.36647539
 C            3.14820840       -0.31876387       -0.34589870
 C            2.61179356       -1.56490220       -0.87277405
 C            2.59627571        0.86803749       -0.80655491
 C            1.78537503       -1.51447820       -1.99544759
 C            0.10454870       -2.83493318       -0.77623514
 C            0.68055668       -2.36684300       -2.03097143
 C           -1.83660002       -1.74180038        0.21438917
 C           -1.30820819       -2.52013895       -0.81127298
 C           -3.04177827        0.22216435        0.91140708
 C           -2.65205308        1.60146299        0.65877528
 C           -2.76112233       -0.71837611       -0.06937477
 C           -1.21034787        2.84779147       -0.78424317
 C           -2.28057406        1.96402649       -0.63599627
 C            0.90666146        2.92967053       -1.79225873
 C           -0.52373835        2.95332704       -2.05931679
 C            2.26656344        0.88774696       -2.15656313
 C            1.78645958       -0.34414925       -2.76299589
 C            1.51458137        1.99325256       -2.70809192
 C           -0.80368522        1.97920957       -3.09629527
 C            0.65196461       -0.00310253       -3.61296065
 C            0.46771612        1.44026414       -3.55186147
 C           -0.41755452       -2.09882526       -2.94241340
 C           -1.65694104       -2.24858134       -2.19447087
 C           -0.46402650       -0.82839348       -3.63985942
 C           -2.93182665       -0.28381317       -1.37843181
 C           -2.62367575        1.10416905       -1.68563135
 C           -1.88577315        1.12313576       -2.94299829
 C           -2.49164127       -1.10628417       -2.48368289
 C           -1.77935829       -0.24958148       -3.41769259
