54
Modified xyz file
 C            1.53623379       -0.17125270        4.29951749
 C            0.65077424       -1.30674637        4.48779597
 C            1.19097551       -2.41662527        3.72341113
 C            2.53214873       -0.53920836        3.30691265
 C            2.31908604       -1.92247580        2.95047883
 C            2.48297778        0.45093827        2.24860326
 C            0.75014975        0.91216828        3.73739162
 C            1.46880572        1.43107516        2.58600676
 C           -0.64105652       -0.96154740        3.91512671
 C           -0.60138928        0.43134398        3.51853822
 C            0.17307748       -2.83591403        2.77722878
 C           -0.96584609       -1.94567815        2.90172844
 C            2.06795983       -2.23645718        1.55597081
 C            0.80047018       -2.93656893        1.47285848
 C            2.55956462        0.05206619        0.91909924
 C            2.34032746       -1.29243559        0.56760867
 C            2.28123041        1.02252628       -0.03857687
 C            0.71907239        1.95695985        1.53610588
 C            1.28897446        1.97113174        0.25746879
 C           -1.21246249        0.79622597        2.32586888
 C           -0.66995234        1.87227914        1.63223615
 C           -1.56114537       -1.51059566        1.72261520
 C           -1.91869426       -0.16425590        1.59245339
 C            0.01601329       -2.68168490        0.35460604
 C           -1.29039411       -2.22726357        0.56207257
 C            1.85262095       -1.56180823       -0.71517524
 C            0.66720719       -2.30301534       -0.82141922
 C            2.52025845        0.67555031       -1.35847906
 C            2.22164563       -0.68908768       -1.73659577
 C            2.06247926        1.55037046       -2.41371879
 C            0.57242841        2.58707326       -0.77847376
 C            1.05726944        2.53639979       -2.08748196
 C           -1.43074220        2.41252350        0.61201845
 C           -0.74600922        2.97519964       -0.53422237
 C           -2.55031142        0.24820436        0.41053652
 C           -2.52007423        1.60681245        0.09089690
 C           -2.08441711       -1.96992095       -0.54467213
 C           -2.78062489       -0.69421464       -0.59900998
 C           -0.08671879       -2.26305215       -1.99203464
 C           -1.53043451       -2.22815476       -1.86074562
 C            1.46590023       -0.64570737       -2.97595040
 C            1.53255854        0.71540205       -3.48031314
 C            0.28188554       -1.36252743       -3.07097834
 C            0.13714469        2.57778042       -3.21451115
 C            0.32515859        1.35105060       -3.97335056
 C           -1.71888950        3.00307059       -1.61346465
 C           -2.76102744        2.04512319       -1.27427925
 C           -1.28209983        2.72993524       -2.96591344
 C           -2.84688129       -0.28818366       -1.99975838
 C           -2.04695182       -1.22388220       -2.77210973
 C           -0.93581696       -0.72278021       -3.56200434
 C           -0.92746936        0.61728752       -3.93839839
 C           -2.81880644        1.05931305       -2.33405789
 C           -1.94618313        1.51323312       -3.40946077
