54
Modified xyz file
 C            1.42884517        0.04725149        3.92702241
 C            0.65325582       -1.16469336        3.72808878
 C            1.45635875       -2.07257013        2.94667576
 C            2.58045146       -0.01793694        3.04193876
 C            2.63736333       -1.34988421        2.49169262
 C            2.49423459        1.09846983        2.12431934
 C            0.61043177        1.17240394        3.50617665
 C            1.34408436        1.90583802        2.50494360
 C           -0.64548274       -0.78226543        3.21060978
 C           -0.69265888        0.67270757        3.14297705
 C           -1.23602407       -1.51393583        2.17766479
 C            0.85226525       -2.68941125        1.78404413
 C           -0.50617717       -2.52074490        1.51635769
 C            2.71184654       -1.49904914        1.05043454
 C            1.79144753       -2.56152747        0.68362548
 C            2.75185721        0.91875979        0.76261797
 C            2.80855122       -0.38053321        0.22292988
 C            2.44033613        1.99826391       -0.06501315
 C            0.64287960        2.53819189        1.48597596
 C            1.40364635        2.91139276        0.38284926
 C           -1.35925232        1.25884961        2.07157632
 C           -0.72905548        2.26285851        1.31497997
 C           -2.33040799       -0.92270247        1.54747257
 C           -2.40192515        0.52865007        1.50656645
 C           -2.82180734       -1.43311912        0.28208828
 C           -0.95268195       -3.00855399        0.28904771
 C           -2.19420153       -2.52880860       -0.28861862
 C            1.29206800       -2.61264372       -0.61514872
 C            0.01338481       -3.13904201       -0.79260513
 C            2.59508054       -0.58385088       -1.13922379
 C            1.81996207       -1.74028773       -1.57147776
 C            2.26669551        1.81212432       -1.49439870
 C            2.26231060        0.52916756       -2.00978355
 C            0.76415279        3.47738887       -0.78279254
 C            1.25777385        2.75501707       -1.94565375
 C           -1.41479019        2.81400161        0.22677031
 C           -0.68004409        3.48026982       -0.83430435
 C           -2.96661117        0.92018546        0.22770449
 C           -3.21554873       -0.29228551       -0.53907718
 C           -2.48439061        2.05744978       -0.40487142
 C           -2.99205557       -0.29993224       -1.91263068
 C           -2.07498509       -2.62397973       -1.73383434
 C           -0.68889411       -2.93634643       -2.04634119
 C           -2.47193507       -1.49554102       -2.55390743
 C            1.02796859       -1.33480022       -2.72740428
 C            1.17584860        0.10622962       -2.88402265
 C           -0.19969162       -1.93384735       -2.97200219
 C           -1.32413122       -1.10287810       -3.35817840
 C            0.10670623        2.26083410       -2.67968338
 C           -1.07467975        2.87235201       -2.09382480
 C           -2.23502852        2.03766252       -1.84074428
 C           -2.35150572        0.84266113       -2.54090076
 C            0.05197824        0.92047131       -3.05677769
 C           -1.19781885        0.34171841       -3.27392984
