54
Modified xyz file
 C            1.16939708       -0.11657999        3.85038420
 C            2.46105501       -0.43328429        3.27917931
 C            2.30311154       -1.66256695        2.50824437
 C            0.32585192       -1.28077744        3.65360161
 C            0.90658336       -2.03412154        2.55752099
 C           -1.02864608       -0.79375438        3.50761622
 C            0.43178020        1.02027195        3.32330594
 C           -0.96463254        0.65906019        3.40761423
 C            0.89826591        1.67190474        2.18019263
 C            3.07918205        0.54736435        2.41053343
 C            2.26474758        1.62977105        1.88503353
 C            2.91589225       -1.45126883        1.21706878
 C            3.60377705       -0.17179083        1.26713658
 C            2.21686805       -1.77055494        0.05743425
 C            0.18800421       -2.15926223        1.36761137
 C            0.85579602       -2.12601444        0.12850466
 C           -1.80442897       -1.25463847        2.37522231
 C           -1.20845862       -2.06329902        1.41267609
 C           -1.84752391        1.05648359        2.33210783
 C           -2.59007641       -0.12404675        1.92159538
 C           -0.00656704        2.15902692        1.22202413
 C           -1.38609627        1.91759466        1.34444039
 C            0.48978423        2.75634697        0.06185061
 C            2.71795196        1.86731939        0.52468361
 C            3.49808031        0.70553647        0.11214923
 C            1.84437651        2.46464574       -0.37251003
 C            2.72058645       -1.24301469       -1.12653137
 C            3.23467985        0.11684533       -1.11777586
 C            1.98978473       -1.42602530       -2.35606334
 C            0.12951869       -2.35756611       -1.05205804
 C            0.66761883       -2.00536793       -2.29014280
 C           -1.93896047       -2.29208404        0.25793965
 C           -1.24080575       -2.58642440       -0.97555511
 C           -3.11178361       -0.16248918        0.63111219
 C           -3.02155029       -1.37308375       -0.06409556
 C           -2.22216117        2.09427216        0.24292483
 C           -3.17937256        1.04361835       -0.07178108
 C           -0.33503945        2.81807805       -1.12953278
 C           -1.69675250        2.60695175       -1.01112099
 C            1.77082414        1.98422396       -1.74617070
 C            2.48810507        0.85585848       -2.12104647
 C            1.86606999       -0.12150920       -2.99402035
 C            0.39760194        2.15954565       -2.20304116
 C           -0.14932320       -1.26488998       -3.23661598
 C            0.47358446        0.04219469       -3.37297809
 C           -0.23135951        1.17824955       -2.97641756
 C           -2.09891876       -2.15463782       -2.07216936
 C           -3.22174002       -1.42531143       -1.50233225
 C           -1.53000953       -1.34454994       -3.13555276
 C           -3.39607282        1.05866582       -1.50872856
 C           -2.39440159        1.93567333       -2.09361840
 C           -1.62318049        1.15693591       -3.04670501
 C           -3.37725076       -0.19031584       -2.24217943
 C           -2.30376710       -0.11720929       -3.22096531
