54
Modified xyz file
 C            1.20301936       -0.06896756        3.98098389
 C            2.46275653       -0.33121531        3.32468043
 C            2.30340316       -1.58047486        2.58886722
 C            0.36425315       -1.23793434        3.76969899
 C            0.89654708       -1.91127346        2.60477740
 C           -0.99757190       -0.76550601        3.72381296
 C            0.41542387        1.06550196        3.53803559
 C           -0.94766810        0.68667366        3.84050801
 C            0.71284203        1.67165260        2.30805532
 C            2.95587271        0.65779161        2.38792595
 C            2.02185418        1.62373003        1.82770420
 C            2.94172789       -1.40838319        1.30698258
 C            3.52107311       -0.07654301        1.27827564
 C            2.28756968       -1.83036200        0.15792856
 C            0.19007757       -1.88193729        1.39779398
 C            0.89053040       -2.02320466        0.19150889
 C           -1.78572924       -1.04838220        2.54362197
 C           -1.16229105       -1.50284968        1.37510882
 C           -2.00446969        1.21173427        3.01159943
 C           -2.69599687        0.06660864        2.44169412
 C           -0.32099266        2.05469368        1.43920030
 C           -1.64268852        2.05144795        1.88966992
 C           -0.07033094        2.18672531        0.06372662
 C            2.25523187        1.67186781        0.39181979
 C            3.30796794        0.71289944        0.07812007
 C            1.16150206        1.79620015       -0.46469858
 C            2.86046549       -1.39391279       -1.02701478
 C            3.20989379        0.01593118       -1.11449598
 C            2.23264717       -1.75790291       -2.27139254
 C            0.17284565       -2.10852011       -1.01152670
 C            0.88013369       -2.25710314       -2.21079752
 C           -1.79883739       -1.29178800        0.14222349
 C           -1.18510713       -1.74990058       -1.03218849
 C           -3.11644259        0.45956676        1.12109622
 C           -2.70121656        1.84070990        0.92760164
 C           -2.90344699       -0.41746472        0.06836210
 C           -1.11909202        2.47524989       -0.80928293
 C           -2.49445090        2.25654792       -0.37702436
 C           -1.01527264        2.05056129       -2.19757477
 C            1.24095813        1.30323082       -1.77727917
 C            2.35531514        0.54956756       -2.15153402
 C            2.18603109       -0.54915906       -3.07829283
 C            0.11251000        1.34101726       -2.61136949
 C            0.28388907       -1.83975977       -3.46151267
 C            0.96816394       -0.61202713       -3.84801631
 C            0.00023910        0.45165330       -3.69077808
 C           -1.86994180       -1.64181123       -2.24714271
 C           -1.13043622       -1.55900590       -3.48815549
 C           -1.27373035       -0.18926835       -3.95499666
 C           -3.31239347        0.05544546       -1.17080697
 C           -3.13768056        1.47603992       -1.41915243
 C           -2.33628178        1.60388769       -2.61559628
 C           -2.91437107       -0.64969373       -2.36441490
 C           -2.45830445        0.34741493       -3.32633950
