54
Modified xyz file
 C            1.59685476        0.05328182        3.69538919
 C            0.72537458       -1.10327089        3.58630556
 C            1.26857268       -1.97392759        2.56116016
 C            2.53394107        0.00826658        2.58582492
 C            2.38690441       -1.27599130        1.93811535
 C            2.33707963        1.19838506        1.78521597
 C            0.78008351        1.23794094        3.52041121
 C            1.41950484        2.06275201        2.51255616
 C           -0.63752561       -0.63188724        3.43786943
 C           -0.58935066        0.81426939        3.27968894
 C           -1.49799087       -1.36496145        2.63880998
 C            0.39189236       -2.69000387        1.74382430
 C           -0.98690383       -2.52801405        1.92271097
 C            0.88403787       -3.16601484        0.52526638
 C            2.51156309       -1.35441502        0.55780822
 C            2.07500232       -2.54035387       -0.02069400
 C            2.19027195        1.05534448        0.40454096
 C            2.49726259       -0.16962298       -0.20051756
 C            1.52652605        2.05364801       -0.32376688
 C            0.60729240        2.90611920        1.77606802
 C            0.91237396        3.09633766        0.37443738
 C           -1.29061546        1.43382076        2.24331028
 C           -0.83003639        2.68089019        1.82661817
 C           -2.37313134       -0.65565336        1.72491162
 C           -2.06531386        0.65492334        1.36951964
 C           -1.89442989       -2.76333016        0.81286388
 C           -2.75339682       -1.59443272        0.69158038
 C           -0.01578732       -3.42934611       -0.59093523
 C           -1.34597551       -3.05694635       -0.49616812
 C            2.03457745       -2.67308297       -1.45958610
 C            0.70304377       -3.13958603       -1.81776034
 C            2.52732717       -0.23363989       -1.59095925
 C            2.32985665       -1.50698110       -2.26153422
 C            1.28493477        1.88568264       -1.69740175
 C            1.81182751        0.77261553       -2.35428733
 C            0.25083922        2.59035713       -2.32365271
 C           -0.26592798        3.73081407       -0.17664594
 C           -1.38978881        3.28487606        0.63585936
 C           -0.60240878        3.47421059       -1.55563252
 C           -2.35918874        1.11328248        0.07264595
 C           -2.22906380        2.47235532       -0.21610157
 C           -1.93652998        2.89260512       -1.57329841
 C           -2.71539877       -1.15418518       -0.68471198
 C           -1.88787574       -2.08585949       -1.43849076
 C           -2.61278838        0.20082578       -0.96753398
 C            0.14066899       -2.18348616       -2.75495816
 C            1.23646480       -1.34064544       -3.20150574
 C            0.99599374        0.07838984       -3.34735274
 C           -1.10232212       -1.60200049       -2.49109538
 C           -0.63133115        1.87377927       -3.22322594
 C           -1.95584630        1.89955248       -2.62472662
 C           -2.28976488        0.53495938       -2.27919086
 C           -0.31096862        0.49533186       -3.53609179
 C           -1.39041050       -0.33797842       -3.01548651
