54
Modified xyz file
 C            1.09935560        0.07378224        3.74519066
 C            2.27589091       -0.17957834        2.94168661
 C            2.24324745       -1.58304284        2.58153841
 C            0.27621082       -1.12987250        3.71541008
 C            0.87321509       -2.02401920        2.74624141
 C           -1.09697225       -0.72028185        3.52382285
 C            0.24145350        1.18060412        3.38172004
 C           -1.12387330        0.73102056        3.57640998
 C            0.52407333        1.94293354        2.24967547
 C            2.44916420        0.56700115        1.71054409
 C            1.49246687        1.49957759        1.33088414
 C            2.82641783       -1.70873323        1.26458590
 C            2.95087618       -0.36092148        0.71253175
 C            2.30825394       -2.69275920        0.44028406
 C            0.16336661       -2.40386234        1.60344358
 C            0.88843153       -3.01339664        0.57972780
 C           -1.76963276       -1.10780309        2.30142252
 C           -1.06275802       -1.78598520        1.30298336
 C           -2.13212438        1.18681898        2.63383092
 C           -2.62864009        0.00660486        1.93663160
 C           -0.48405165        2.79380387        1.80669619
 C           -1.86559018        2.34082222        1.90508598
 C           -0.32898116        3.46964413        0.53598889
 C            1.38023862        1.82542362       -0.02284422
 C            0.66821302        2.96536677       -0.38279827
 C            2.64757180       -0.15650215       -0.63787471
 C            1.80956762        0.91374606       -1.00506310
 C            2.58353492       -2.57523501       -0.97322008
 C            2.80625493       -1.24321611       -1.50004853
 C            0.32316674       -3.08360897       -0.75436177
 C            1.44341339       -3.12085526       -1.68035056
 C           -1.51092738       -1.70198660       -0.02397107
 C           -0.79709544       -2.31421086       -1.05738020
 C           -3.04810863        0.11411136        0.61923995
 C           -2.59189057       -0.87626019       -0.33878834
 C           -2.46537729        2.50962651        0.59359033
 C           -1.61366641        3.42469254       -0.14571303
 C           -3.02778233        1.40912505       -0.04847608
 C            0.09289988        3.04521775       -1.70431815
 C           -1.34915254        3.17462611       -1.54882486
 C            1.33062039        1.02423967       -2.32661234
 C            0.33671655        1.95409789       -2.61730335
 C            2.20087173       -1.21684936       -2.81194149
 C            1.34412667       -2.39327457       -2.92810661
 C            1.41550661       -0.06564644       -3.18677673
 C           -1.05014536       -1.94943285       -2.38446747
 C            0.03600271       -1.93631510       -3.34741502
 C            0.18685092       -0.56126702       -3.78134691
 C           -2.66801501       -0.27025499       -1.65567966
 C           -2.77945333        1.16995755       -1.46666426
 C           -1.95881551        2.02646782       -2.19628811
 C           -0.95411270        1.46649058       -3.08139027
 C           -1.86141423       -0.77573025       -2.66551517
 C           -1.04939983        0.13509912       -3.46562622
