54
Modified xyz file
 C            1.60061252        0.02916390        3.80105067
 C            0.79641351       -1.16713654        3.63527086
 C            1.60436481       -2.12647280        2.91901626
 C            2.72063651       -0.06770058        2.87791643
 C            2.75077127       -1.41685142        2.36395137
 C            2.60303776        1.02424702        1.93467456
 C            0.79249605        1.16404801        3.39173568
 C            1.54371170        1.90437908        2.40309253
 C           -0.47882493       -0.77513297        3.06008431
 C           -0.51272707        0.67821495        3.00421997
 C           -1.00601291       -1.49619110        1.98719661
 C            0.99137620       -2.84873534        1.82559734
 C           -0.36157286       -2.66601122        1.54310389
 C            2.71931358       -1.61548578        0.92449901
 C            1.93102962       -2.81388851        0.71944616
 C            2.69831473        0.78377460        0.56184015
 C            2.52349747       -0.52280254        0.07389790
 C            2.40491959        1.86220937       -0.26701687
 C            0.84256041        2.61242306        1.43597347
 C            1.54968117        2.90351726        0.27523285
 C           -1.12762861        1.28100110        1.91472369
 C           -0.54520850        2.42185880        1.34272695
 C           -1.94746354       -0.86217030        1.16866146
 C           -2.04062566        0.53351198        1.17222640
 C           -2.61018299       -1.59023747        0.18564197
 C           -0.84591350       -3.32632142        0.41623238
 C           -2.07252559       -2.87331456       -0.20849444
 C            1.43898681       -3.07487663       -0.54773680
 C            0.10044335       -3.63402380       -0.64451727
 C            1.92583975       -0.73818825       -1.17896772
 C            1.53386970       -2.02754663       -1.55215108
 C            1.96361169        1.62392686       -1.62547260
 C            1.57244721        0.34341619       -1.98980406
 C            0.87439482        3.55020825       -0.82924996
 C            1.14323995        2.76136004       -2.02143722
 C           -1.26554839        3.12665778        0.37602470
 C           -0.55666307        3.74391110       -0.73324229
 C           -2.81379250        1.17443730        0.20830473
 C           -2.47681248        2.53571746       -0.16623433
 C           -3.04195309       -0.91752271       -1.02672589
 C           -3.16208749        0.46443814       -1.00950776
 C           -1.85823430       -2.83694111       -1.64905015
 C           -0.47546910       -3.19397296       -1.90129198
 C            0.41640231       -2.19759490       -2.46836999
 C           -2.35100546       -1.55955284       -2.13392050
 C            0.58239696        0.18918884       -2.96129418
 C           -0.12030121       -1.07425320       -3.08191535
 C           -1.54944269       -0.79142852       -2.97424477
 C           -0.12364279        2.52206347       -2.69099472
 C           -1.14995015        3.25463087       -1.96648288
 C           -2.38890780        2.58444119       -1.61951219
 C           -2.63086311        1.24175320       -2.11775517
 C           -0.39501338        1.24521779       -3.16927682
 C           -1.71599630        0.65463651       -2.98767528
