54
Modified xyz file
 C            1.45537302       -0.03377015        4.00518478
 C            0.66512982       -1.24167272        3.86300238
 C            1.52831483       -2.24744412        3.27939549
 C            2.64263866       -0.19169521        3.17985758
 C            2.67996558       -1.56072939        2.71305843
 C            2.62890031        0.86679802        2.19233688
 C            0.68302710        1.06753612        3.45615351
 C            1.51767670        1.75419003        2.49427688
 C           -0.57108226       -0.88926839        3.17811864
 C           -0.58434754        0.54959365        2.98731534
 C           -1.05646351       -1.69562257        2.15127393
 C            0.98098070       -3.09503557        2.24409066
 C           -0.38413569       -2.87454847        1.80414661
 C            2.67523791       -1.80726714        1.27965622
 C            1.81741194       -2.95272886        1.05996896
 C            2.86490291        0.56772540        0.85340866
 C            2.59793548       -0.73314082        0.39305028
 C            2.71333625        1.62909365       -0.02958287
 C            0.90221321        2.38114518        1.41562621
 C            1.70389056        2.62200427        0.30236082
 C           -1.08663888        1.05417482        1.79375006
 C           -0.46731115        2.16684450        1.21312392
 C           -1.93997860       -1.13938787        1.22281647
 C           -1.92353126        0.25076032        1.01282699
 C           -2.41236735       -1.97952092        0.21962422
 C           -0.39305439       -3.28965896        0.41539772
 C            0.92543181       -2.94718954       -0.08793442
 C           -1.48211748       -2.93192467       -0.35333897
 C            1.99233426       -0.92646656       -0.85985541
 C            1.02887408       -1.92563226       -1.03267534
 C            2.60630748        1.35201285       -1.44466096
 C            2.13468466        0.04396766       -1.84124922
 C            1.09688719        3.07966507       -0.93330674
 C            1.71884758        2.34475153       -2.02349040
 C           -1.08902003        2.77443872        0.12775408
 C           -0.27430539        3.29210498       -0.96423342
 C           -2.55986286        0.81816781       -0.10087376
 C           -2.25278527        2.13264939       -0.45943998
 C           -3.15838699       -1.42184506       -0.88829649
 C           -3.27941370        0.01434317       -0.98736600
 C           -1.22802566       -2.42953938       -1.68586918
 C           -0.04697574       -1.71494381       -1.90818099
 C           -2.49554147       -1.87330606       -2.10575771
 C            1.06681967        0.23247102       -2.80815987
 C            0.87034884        1.66793045       -2.98684478
 C           -0.03814207       -0.61703432       -2.78464484
 C           -0.99304091        3.05130095       -2.20584479
 C           -2.30416356        2.53606122       -1.85630786
 C           -0.41417693        2.15398474       -3.19618796
 C           -3.24768558        0.30651243       -2.41096639
 C           -2.48856490       -0.76640139       -3.03046490
 C           -1.21374429       -0.19999922       -3.41822707
 C           -2.66204539        1.55379685       -2.85734718
 C           -1.45056166        1.22174865       -3.59646822
