54
Modified xyz file
 C            1.58513243        0.04384010        3.90452980
 C            0.79015017       -1.16958130        3.88025540
 C            1.62920627       -2.20416941        3.31663750
 C            2.67449914       -0.13497130        2.95797843
 C            2.75232964       -1.54395344        2.65869357
 C            2.46629538        0.79871309        1.86556063
 C            0.75148797        1.11905032        3.40532091
 C            1.44646925        1.73746824        2.29549531
 C           -0.47735401       -0.85673810        3.23292333
 C           -0.57247954        0.58933143        3.14021059
 C           -0.92850091       -1.62913162        2.16117985
 C            1.03885844       -3.11463133        2.35818682
 C           -0.29223603       -2.83627558        1.84802861
 C            2.74079904       -1.95683680        1.27170311
 C            1.92014580       -3.15199678        1.20575266
 C            2.43878463        0.35130371        0.53948350
 C            2.62456672       -1.01298297        0.24728581
 C            1.88305087        1.20866517       -0.42683583
 C            0.66725148        2.31798497        1.31049263
 C            1.17012177        2.33300260        0.01759207
 C           -1.26614361        1.13988752        2.07031320
 C           -0.71757596        2.26850178        1.46020539
 C           -1.80975233       -1.05715901        1.23712381
 C           -2.09184838        0.31329919        1.30751454
 C           -2.16103168       -1.78025972        0.09579921
 C           -0.29902257       -3.30836999        0.47399264
 C            1.08952910       -3.34705233        0.03077308
 C           -1.27429560       -2.82331538       -0.38540220
 C            2.29067952       -1.49014564       -1.01608747
 C            1.44105011       -2.66979644       -1.12844550
 C            1.78195573        0.78883267       -1.76150881
 C            1.89832416       -0.56387762       -2.05558410
 C            1.16828704        1.60568624       -2.71003643
 C            0.53726149        3.17290250       -0.89052750
 C            0.60608530        2.87449580       -2.30234142
 C           -1.49467870        2.96348179        0.54006479
 C           -0.82306481        3.58798542       -0.58998755
 C           -2.88960190        0.90703048        0.32835914
 C           -2.69527088        2.31913452        0.03818287
 C           -2.68330939       -1.08932715       -1.06992325
 C           -3.10231840        0.22529572       -0.93800828
 C           -0.92289403       -2.48565956       -1.75744751
 C            0.41670695       -2.37462324       -2.11402789
 C            0.86563562       -1.20903203       -2.85447612
 C           -1.87341910       -1.48270883       -2.21539751
 C            0.23708936        1.00103529       -3.64919662
 C           -0.06588453       -0.41123137       -3.50411792
 C           -1.47407313       -0.52550670       -3.14425039
 C           -0.74176540        2.96722372       -2.84839144
 C           -1.63247798        3.36769791       -1.77606338
 C           -2.73358318        2.49605847       -1.40517931
 C           -2.84790408        1.17716751       -2.00886840
 C           -1.01202186        1.73654019       -3.56895944
 C           -2.02924539        0.81771730       -3.07857492
