54
Modified xyz file
 C            1.57689538       -0.00898241        3.71691007
 C            0.73414821       -1.18440857        3.58554775
 C            1.31035371       -2.02367644        2.55368516
 C            2.52091740       -0.01658303        2.61084867
 C            2.38599775       -1.27409514        1.92219151
 C            2.32904828        1.19155168        1.84768164
 C            0.73154419        1.16066708        3.56584563
 C            1.28577505        1.97121456        2.49831863
 C           -0.63657992       -0.74338479        3.43106493
 C           -0.64120485        0.71418043        3.44826080
 C           -1.45364677       -1.42899746        2.54018315
 C            0.47474041       -2.77269363        1.72853732
 C           -0.90747044       -2.53313891        1.75665892
 C            1.04718762       -3.28275088        0.56565235
 C            2.46505897       -1.30570922        0.53519481
 C            2.13067138       -2.52324773       -0.04203406
 C            2.33938940        1.13429085        0.45506691
 C            2.27160913       -0.11373596       -0.19785932
 C            1.90675000        2.27926353       -0.20668190
 C            0.42931106        2.71043558        1.68898127
 C            0.94119862        3.13645006        0.46741763
 C           -1.48296990        1.41254848        2.59310555
 C           -0.95456661        2.53475512        1.82318292
 C           -2.37713514       -0.69502174        1.68683289
 C           -2.41298814        0.68986323        1.73688978
 C           -1.69599327       -2.61038457        0.53004882
 C           -2.41375034       -1.35657784        0.39315762
 C            0.18764810       -3.74692280       -0.50353197
 C           -1.14867693       -3.19524254       -0.59845932
 C            2.00204640       -2.61868513       -1.47389058
 C            0.87604344       -3.49457182       -1.75652070
 C            1.91750741       -0.16769875       -1.56385532
 C            1.81293531       -1.39649716       -2.22093458
 C            1.53335412        2.21010271       -1.60228185
 C            1.39610684        0.96332309       -2.19994622
 C            0.04723633        3.68119183       -0.53620444
 C            0.53335035        3.24418507       -1.83309557
 C           -1.82932762        2.69481079        0.66877149
 C           -2.54557736        1.43890492        0.49992353
 C           -1.36492666        3.36065406       -0.45714628
 C           -2.28041422       -0.60532862       -0.77579185
 C           -2.49700801        0.78204004       -0.73010277
 C           -1.25550576       -2.50605294       -1.87536102
 C           -0.03070034       -2.76122902       -2.61587641
 C            0.69586895       -1.61658865       -3.12835405
 C           -1.80238559       -1.22250814       -1.94423153
 C            0.50615246        0.79801721       -3.26420092
 C           -0.05119837       -0.51514585       -3.50316919
 C           -1.42723642       -0.43780869       -3.03344225
 C           -0.62343795        2.93732567       -2.64826875
 C           -1.78039555        2.88560179       -1.76674634
 C           -2.35870693        1.55542315       -1.87974053
 C           -0.61055454        1.71254714       -3.41896808
 C           -1.80648863        0.95832039       -3.07326397
