54
Modified xyz file
 C            1.02206983       -0.05284244        3.90909196
 C            2.18700902       -0.25439308        3.06849025
 C            2.01348812       -1.51473823        2.36612145
 C            0.13229599       -1.18790720        3.71481870
 C            0.67415075       -1.99916766        2.63887676
 C           -1.21463088       -0.67977166        3.58302633
 C            0.23833186        1.16007531        3.75117612
 C           -1.15893907        0.77185592        3.63546504
 C            0.71873762        2.19345815        2.95364875
 C            2.53280191        0.75656920        2.08440323
 C            1.89062565        1.98578746        2.10608510
 C            2.39786700       -1.31063494        0.98185729
 C            2.73949565        0.08996894        0.80963516
 C            1.65240604       -1.92240754       -0.01634953
 C           -0.13011745       -2.34915743        1.55363788
 C            0.49824647       -2.63219679        0.33524481
 C           -1.97120071       -1.04797295        2.40614790
 C           -1.50377950       -2.04942580        1.56460755
 C           -1.96066121        1.29486586        2.53542711
 C           -2.48154193        0.16395380        1.78836537
 C           -0.23348816        2.99241084        2.20070478
 C           -1.51930915        2.41313850        1.84677666
 C            1.66393659        2.68288310        0.85319597
 C            0.41278576        3.41141300        0.97293088
 C            2.36695143        0.71917487       -0.37866456
 C            1.94262443        2.05923420       -0.36229579
 C            1.77641199       -1.43269620       -1.31432655
 C            2.10953733       -0.08133378       -1.50055098
 C            1.25016274       -2.19307653       -2.35674733
 C           -0.24223337       -3.25547096       -0.66491018
 C            0.19029589       -3.13316703       -2.04764409
 C           -2.22067305       -2.21469848        0.38601376
 C           -1.67559347       -3.06845328       -0.64672163
 C           -2.55937964        0.20556978        0.39418507
 C           -2.73527666       -1.01179146       -0.25762791
 C           -1.63262286        2.44179361        0.39699849
 C           -0.55434597        3.28276378       -0.10161223
 C           -1.98336457        1.27896549       -0.29957615
 C            1.31688560        2.58703436       -1.49091823
 C           -0.06550355        3.02835852       -1.36963901
 C            1.92151503        0.53202151       -2.73854088
 C            1.42168299        1.88666181       -2.75470215
 C            0.88530295       -1.55908351       -3.60614741
 C            1.20372257       -0.16075194       -3.78944896
 C           -0.97065853       -2.75513892       -2.84451970
 C           -2.05695464       -2.49552841       -1.92362046
 C           -2.45445329       -1.11725840       -1.67448870
 C           -0.55776242       -1.68367142       -3.72659135
 C           -1.59218591        1.13750734       -1.64269406
 C           -0.82509341        2.14797332       -2.22908924
 C            0.07813990        1.82637285       -3.31329263
 C           -0.05769083        0.54574153       -3.96337022
 C           -1.78425181       -0.07955875       -2.31667134
 C           -1.09576904       -0.35325825       -3.50617111
