54
Modified xyz file
 C            1.62841687       -0.03672590        4.44908020
 C            0.74941580       -1.18411235        4.57156078
 C            1.32999583       -2.25028381        3.78156720
 C            2.59832313       -0.31650815        3.39810849
 C            2.42849544       -1.69110378        3.00262536
 C            2.45973795        0.71663099        2.38538633
 C            0.82112838        1.07258150        3.98931096
 C            1.57262286        1.72836050        2.94000634
 C           -0.53280473       -0.83399937        3.97180869
 C           -0.50279215        0.57239860        3.64666886
 C            0.31861143       -2.68419323        2.83864718
 C           -0.80552632       -1.77170244        2.90527901
 C            2.15855324       -1.97445832        1.60742826
 C            0.97436461       -2.80921684        1.56076588
 C            2.33480307        0.37707541        1.02702739
 C            2.27713293       -0.97165875        0.63316615
 C            1.89152260        1.36971231        0.14157300
 C            0.84552725        2.48149684        2.04382376
 C            1.29694194        2.51384916        0.67334748
 C           -1.05671551        1.00465729        2.44335394
 C           -0.58219629        2.21473492        1.95346459
 C           -1.30944672       -1.29832288        1.69394023
 C           -1.57765831        0.06828019        1.52888771
 C            0.20151657       -2.66373216        0.43083241
 C           -1.05291116       -2.05954825        0.55357427
 C            1.77389766       -1.28015667       -0.63936997
 C            0.89509190       -2.36766830       -0.72188184
 C            1.65984489        1.06090166       -1.20427225
 C            1.70142233       -0.27508724       -1.61302893
 C            1.05756612        2.02653780       -2.02468436
 C            0.19894328        3.11787991       -0.04270044
 C           -0.99750970        2.64930531        0.64217558
 C            0.21161691        3.04507987       -1.42014558
 C           -2.01340095        0.50859723        0.26507978
 C           -1.89515179        1.86937613       -0.07196518
 C           -1.70242547       -1.72388224       -0.63436365
 C           -2.26026065       -0.44233196       -0.74235129
 C            0.19197483       -2.57664367       -1.88894872
 C           -1.23674800       -2.36106138       -1.78909426
 C            1.29018534       -0.62364014       -2.90435112
 C            0.63838667       -1.90336762       -3.08080274
 C            0.43133240        1.63949716       -3.27879580
 C            0.57783689        0.33796385       -3.73236925
 C           -1.07659199        2.96583487       -2.08085239
 C           -2.14981134        2.28315527       -1.37594041
 C           -0.87526841        2.28524614       -3.34112703
 C           -2.82231918       -0.03161056       -1.95551807
 C           -2.77171597        1.36938381       -2.30678840
 C           -2.06304579        1.48424029       -3.57583796
 C           -1.70594834       -1.94645299       -3.09323285
 C           -0.53012324       -1.72410907       -3.92455524
 C           -0.55542465       -0.34092172       -4.35142537
 C           -2.53840088       -0.76931904       -3.17582748
 C           -1.90101160        0.14904181       -4.10825927
