54
Modified xyz file
 C            1.52946742       -0.02451871        3.66236382
 C            0.70793743       -1.21594671        3.55833951
 C            1.22830910       -2.02933625        2.47612514
 C            2.52453225       -0.07826681        2.60537398
 C            2.34504501       -1.31053084        1.87587546
 C            2.44506450        1.15633470        1.86486430
 C            0.67442331        1.12212765        3.40407456
 C            1.26838657        1.87965082        2.32856861
 C           -0.67361086       -0.79392115        3.49218182
 C           -0.67637119        0.64165284        3.22963473
 C           -1.56457923       -1.59691148        2.79680249
 C            0.33785095       -2.69986406        1.63832342
 C           -1.04279580       -2.59716325        1.86866100
 C            0.80196598       -3.09863125        0.38619195
 C            2.45742909       -1.29448187        0.48901471
 C            1.91536535       -2.37400404       -0.20754745
 C            2.69142767        1.14259117        0.49716853
 C            2.72195288       -0.08992647       -0.18730889
 C            2.31224503        2.29473610       -0.18536338
 C            0.44680261        2.46755784        1.37047627
 C            1.09020021        2.95732991        0.23505373
 C           -1.44448134        1.14133943        2.17817206
 C           -0.90492828        2.08788715        1.28842866
 C           -2.70142795       -0.95992333        2.16039110
 C           -2.60461095        0.45061234        1.83031860
 C           -1.98831500       -2.70620005        0.76121373
 C           -2.99713205       -1.68096036        0.93340095
 C           -0.14531701       -3.39822882       -0.67080821
 C           -1.51835327       -2.96732819       -0.51625545
 C            1.68446735       -2.28603228       -1.64041092
 C            0.36844847       -2.83535422       -1.90760818
 C            2.78804804       -0.11021887       -1.58437790
 C            2.06619487       -1.13710939       -2.31171321
 C            2.38537589        2.34735276       -1.62810135
 C            2.63261656        1.11851706       -2.34409884
 C            0.33463146        3.29455782       -0.95700484
 C            1.13629679        2.91271173       -2.11324180
 C           -1.67766740        2.52165308        0.20668616
 C           -1.03286515        3.07220725       -0.97523147
 C           -3.17411705        0.61613132        0.50767832
 C           -3.18788646       -0.69943691       -0.12027399
 C           -2.80153620        1.71534129       -0.24526164
 C           -1.81919659       -2.03649188       -1.59945103
 C           -0.65006317       -1.96255848       -2.46428670
 C           -2.56581594       -0.88205089       -1.35763845
 C            1.09100040       -0.45443834       -3.15079197
 C            1.53821104        0.92041036       -3.28466024
 C            0.58303535        1.99555826       -3.09764178
 C           -0.26887862       -0.73310457       -2.99572553
 C           -1.62517732        2.43789572       -2.14123823
 C           -2.67130477        1.54541994       -1.67910475
 C           -2.39503663        0.21656166       -2.19683490
 C           -0.77145418        1.69476860       -3.05291303
 C           -1.20380917        0.30203267       -3.03048949
