54
Modified xyz file
 C            1.20380887        0.01236935        3.47471966
 C            2.41313114       -0.31288088        2.75714643
 C            2.32141261       -1.70290199        2.33884467
 C            0.36744742       -1.17737914        3.49826777
 C            0.96869027       -2.15582622        2.60971740
 C           -1.00165499       -0.76609223        3.25625606
 C            0.38936489        1.10906811        2.99462246
 C           -0.99743265        0.67154456        3.01114848
 C            0.82648946        1.91206807        1.94100835
 C            2.75638563        0.47243280        1.59009191
 C            2.00519912        1.59503407        1.24159071
 C            2.82832530       -1.79618477        0.98366575
 C            3.16530142       -0.44805812        0.54110245
 C            2.19730798       -2.65823173        0.10247025
 C            0.20735338       -2.69937518        1.57300380
 C            0.83605275       -3.09600717        0.38980084
 C           -1.80636572       -1.58142164        2.47811925
 C           -1.18223718       -2.55317979        1.58738940
 C           -2.91881244       -0.97896542        1.77244438
 C           -1.88834897        1.23647027        2.09600004
 C           -2.90525709        0.45419366        1.53930359
 C           -0.11271965        2.77130590        1.37354478
 C           -1.52506320        2.43085439        1.47560571
 C            0.11582695        3.35880016        0.06554593
 C            2.23643302        2.13948109       -0.02037102
 C            1.27621630        3.04670184       -0.62299127
 C            2.97617748       -0.07189909       -0.79047931
 C            2.76356696        1.27737590       -1.06914778
 C            2.28641286       -2.37895742       -1.31617065
 C            2.62789853       -1.03400266       -1.74390627
 C            0.08925187       -3.07161950       -0.85926857
 C            1.01412353       -2.73034114       -1.92513484
 C           -1.91188991       -2.53338185        0.32814860
 C           -3.04473212       -1.63866002        0.48326801
 C           -1.19981236       -2.54774699       -0.86723272
 C           -3.32149707        0.66800408        0.15870595
 C           -3.27764865       -0.61835674       -0.52066115
 C           -2.16808194        2.81635420        0.23212664
 C           -1.15198783        3.36767701       -0.64808471
 C           -2.91390321        1.81682352       -0.50712563
 C           -1.25223096        2.69135055       -1.93148777
 C           -2.32755727        1.71490771       -1.83661789
 C            1.19731318        2.73580935       -2.04208788
 C            2.13302112        1.65953316       -2.32002112
 C           -0.08682450        2.37790533       -2.62300599
 C            1.72663236       -0.68974081       -2.83671111
 C            0.65713536       -1.67666584       -2.85545288
 C            1.44104357        0.64551934       -3.09122788
 C            0.05798706        1.07329195       -3.25213449
 C           -1.62685564       -1.76186847       -1.94314347
 C           -2.63573023       -0.72845430       -1.74699222
 C           -2.19119990        0.46981700       -2.44232731
 C           -0.66552592       -1.25837594       -2.91607092
 C           -0.97194098        0.14188166       -3.16580442
