54
Modified xyz file
 C            1.64656842        0.08324678        3.66430332
 C            0.80045502       -1.09356086        3.57124797
 C            1.33809991       -1.94161059        2.52588360
 C            2.54325861        0.07692788        2.52018802
 C            2.38456899       -1.18760348        1.84708718
 C            2.30705392        1.28367022        1.76080732
 C            0.79486675        1.24839342        3.53465461
 C            1.39294868        2.11166485        2.53494193
 C           -0.57666399       -0.65582183        3.45877668
 C           -0.56567011        0.79211192        3.30616300
 C           -1.43637228       -1.40684445        2.67411480
 C            0.46107604       -2.69909544        1.74840688
 C           -0.91684602       -2.56816062        1.96189764
 C            0.93206929       -3.15581193        0.51530576
 C            2.41850054       -1.23148506        0.46097895
 C            2.04010868       -2.44256031       -0.09729864
 C            2.13258114        1.19808776        0.37763363
 C            2.23799154       -0.04502095       -0.28038342
 C            1.57001986        2.29354313       -0.28304139
 C            0.54524521        2.95545880        1.83873495
 C            0.85481346        3.24088335        0.45423179
 C           -1.29224329        1.39618494        2.27847058
 C           -0.88237898        2.66356247        1.86746720
 C           -2.32577862       -0.71612694        1.75945944
 C           -2.03833868        0.59711784        1.40056084
 C           -1.85137930       -2.84024002        0.88183889
 C           -2.69910432       -1.66559646        0.72878549
 C            0.00705522       -3.51486472       -0.54966035
 C           -1.33776349       -3.19161613       -0.42680342
 C            1.91818447       -2.55811567       -1.52722279
 C            0.68665835       -3.28171690       -1.81204185
 C            2.06622996       -0.10898289       -1.67731647
 C            1.91497423       -1.34496357       -2.31097634
 C            1.46695141        2.27982399       -1.66937818
 C            1.66357691        1.02996078       -2.37842904
 C            0.36722889        2.97921595       -2.31828909
 C           -0.36116893        3.80985468       -0.09652030
 C           -1.45915593        3.24133077        0.66859899
 C           -0.65222735        3.60054902       -1.49752429
 C           -2.26673025        1.01728769        0.08189405
 C           -2.19241817        2.37106562       -0.22422860
 C           -1.84410832        2.76447261       -1.57440830
 C           -2.63480641       -1.24907454       -0.65827382
 C           -1.96803591       -2.30491525       -1.39896490
 C           -2.34253465        0.07845686       -0.95670237
 C           -0.00865296       -2.56413127       -2.86249772
 C            0.86659997       -1.49148806       -3.30295175
 C           -1.30982377       -1.98198182       -2.58002866
 C            0.60367243        0.91325120       -3.37861569
 C           -0.30683232        2.01934361       -3.16701271
 C           -1.58965722        1.72656956       -2.55394690
 C           -1.87414907        0.39989663       -2.23766211
 C            0.04380958       -0.33675424       -3.58794719
 C           -1.27232717       -0.59378834       -3.01430723
