54
Modified xyz file
 C            1.39754025        0.02099672        4.23176869
 C            0.63330403       -1.15469683        3.85315596
 C            1.51215709       -2.01961114        3.10263393
 C            2.64837993       -0.00758921        3.48861143
 C            2.69484700       -1.25065661        2.74678982
 C            2.75164063        1.23640330        2.75724937
 C            0.65484612        1.19129165        3.79729074
 C            1.55991553        2.02514618        3.04391041
 C           -0.59449744       -0.71251446        3.21410993
 C           -0.55856805        0.73740975        3.14690453
 C           -1.08189131       -1.40307217        2.10252971
 C            0.99616359       -2.59709859        1.88200869
 C           -0.36090976       -2.50061343        1.59598936
 C            2.76959406       -1.21603716        1.29154548
 C            1.92516184       -2.28810893        0.80896604
 C            2.89394568        1.20311023        1.31016462
 C            2.75936311       -0.00185039        0.61008434
 C            1.10144221        2.56735521        1.77905150
 C            2.17872192        2.36955900        0.83180473
 C           -0.98531244        1.34241708        1.96732385
 C           -0.20275154        2.33034581        1.34322742
 C           -1.98134456       -0.73030624        1.26460175
 C           -1.94341266        0.66924848        1.21199313
 C           -2.63825885       -1.45029972        0.27031501
 C           -0.73867957       -3.02780163        0.36739017
 C           -2.03753564       -2.68745847       -0.17100382
 C            1.40769936       -2.22117844       -0.48077354
 C            0.22646466       -2.92594445       -0.71719535
 C            2.29801818        0.03065863       -0.71017976
 C            1.70196097       -1.10838836       -1.27829944
 C            1.86593484        2.43363707       -0.51221721
 C            2.15536597        1.27258916       -1.33150139
 C           -0.51675186        2.70082922        0.03171827
 C            0.52722609        2.85588593       -0.88654578
 C           -2.53916368        1.35135435        0.15670076
 C           -1.80300092        2.44875569       -0.43784439
 C           -3.15010467       -0.76792314       -0.90623656
 C           -3.19695375        0.61871925       -0.91123761
 C           -1.91814525       -2.63605031       -1.61813065
 C           -0.50527545       -2.72508065       -1.95422169
 C           -2.68558740       -1.49451559       -2.08523247
 C            1.16425471       -1.04113353       -2.56755541
 C            0.01635236       -1.86765502       -2.91199224
 C            1.34445415        1.39759480       -2.52845771
 C            0.34916005        2.43531081       -2.26809299
 C            0.98957721        0.24852293       -3.21637679
 C           -2.05877688        2.43485102       -1.86964483
 C           -2.97823096        1.34423699       -2.15060023
 C           -0.93665356        2.32039754       -2.78161180
 C           -2.23748584       -0.80003211       -3.20504638
 C           -0.89654464       -1.06020271       -3.70695950
 C           -0.25738246        0.21886149       -3.96054830
 C           -2.48020953        0.62784083       -3.30996413
 C           -1.24006286        1.26249015       -3.73036966
