54
Modified xyz file
 C            1.32682451       -0.03084225        3.84347902
 C            0.50478995       -1.22346203        3.79496978
 C            1.17740969       -2.18611981        2.94063180
 C            2.37383347       -0.18269634        2.84706333
 C            2.17281133       -1.44599010        2.17381587
 C            2.37898678        1.01380987        2.04462049
 C            0.49909587        1.09057402        3.43415955
 C            1.24482939        1.83438166        2.44384578
 C           -0.84782673       -0.82088098        3.44968865
 C           -0.79582033        0.57620128        3.04704112
 C           -1.62210478       -1.70347359        2.71255911
 C            0.40037538       -3.13338618        2.28965042
 C           -1.04885725       -2.98998706        2.33875448
 C            0.75851265       -3.50425154        0.93271651
 C            2.13365557       -1.47664131        0.77678645
 C            1.58477970       -2.59580108        0.15403092
 C            2.62975204        0.91265178        0.68385552
 C            2.33000483       -0.29992377        0.03106685
 C            2.46504398        2.09813409       -0.01854359
 C            0.55069687        2.47968330        1.42444128
 C            1.33218808        2.92575948        0.36094774
 C           -1.30630879        0.96027209        1.80897953
 C           -0.77282472        2.08724941        1.16668107
 C           -2.36374769       -1.20529869        1.56601235
 C           -2.16207916        0.09926591        1.11054486
 C           -1.58306513       -3.35673028        1.03938513
 C           -0.46982143       -3.73840067        0.19200091
 C           -2.45815621       -2.28432844        0.59705925
 C            0.96951836       -2.45596539       -1.15310266
 C           -0.33574778       -3.09676908       -1.10228392
 C            1.98707129       -0.29178289       -1.33351986
 C            1.10380153       -1.25185095       -1.83318127
 C            2.54052836        2.07655796       -1.45855420
 C            2.28766303        0.81827496       -2.11876994
 C            0.70263018        3.40333458       -0.85415329
 C            1.57759051        3.04155074       -1.96177404
 C           -1.42887425        2.58473451        0.04261302
 C           -0.67644780        3.29389988       -0.98176714
 C           -2.57971358        0.43624208       -0.17937529
 C           -2.40422563        1.74199940       -0.62637549
 C           -2.49121148       -1.95421975       -0.75056623
 C           -1.42532761       -2.42088378       -1.63541529
 C           -2.77375649       -0.57730318       -1.11930781
 C            0.12113411       -0.88122437       -2.75929872
 C           -1.17532466       -1.36145406       -2.59581742
 C           -2.26137377       -0.40615304       -2.46699824
 C            1.45779844        1.10423376       -3.27520906
 C            1.01223479        2.48800392       -3.17737067
 C            0.29166609        0.27664094       -3.51114145
 C           -1.26968353        2.98442630       -2.27405910
 C           -2.31347393        1.99674515       -2.05699347
 C           -2.07261036        0.87920253       -2.95456493
 C           -0.42685453        2.51056854       -3.35854260
 C           -0.84998915        1.16142249       -3.69071511
