54
Modified xyz file
 C            1.47223383       -0.24469361        4.10606842
 C            0.62624466       -1.42257891        4.02248044
 C            1.17703423       -2.29226917        3.00011575
 C            2.52793711       -0.38224512        3.11742669
 C            2.40311754       -1.68996587        2.50464837
 C            2.49590768        0.79177003        2.26174686
 C            0.66991356        0.90561874        3.72951175
 C            1.37873590        1.62577426        2.68930355
 C           -0.68522626       -0.99721472        3.56713405
 C           -0.67234206        0.44832155        3.43405686
 C            0.11739428       -2.59307482        2.04856973
 C           -1.03715150       -1.78515271        2.39592539
 C            0.44524214       -2.72207141        0.70560215
 C            2.68182018       -1.80994313        1.15226983
 C            1.78233156       -2.59543386        0.32792023
 C            2.74393634        0.64962333        0.89607845
 C            3.00919883       -0.61875754        0.37589330
 C            2.30768259        1.65957601        0.04286768
 C            0.63241675        2.27935452        1.71325674
 C            1.26657973        2.56079176        0.50746609
 C           -1.31136161        0.99693753        2.33118227
 C           -0.75870874        2.12872115        1.72415473
 C           -1.73890087       -1.15597940        1.37111178
 C           -2.12964188        0.16665167        1.56630665
 C           -0.54202201       -2.49038757       -0.25241738
 C           -1.61179730       -1.63321220        0.06158808
 C           -0.22206987       -2.75398576       -1.58174257
 C            2.09302509       -2.25349761       -1.04596290
 C            2.68649684       -0.91940156       -1.01550250
 C            1.14939898       -2.53902703       -2.01775335
 C            2.05699049        1.37790472       -1.36347890
 C            2.18286194        0.08101622       -1.84994485
 C            0.48056823        2.97290303       -0.64179427
 C            0.93325744        2.19930710       -1.79270299
 C           -1.51862846        2.77817297        0.75366792
 C           -0.87154721        3.22397041       -0.47269337
 C           -2.95960003        0.75780806        0.62831448
 C           -2.78672864        2.17769065        0.38042986
 C           -2.38023170       -1.03589811       -0.95271016
 C           -3.13331052        0.10130599       -0.65585596
 C           -1.09866530       -2.28574902       -2.63180710
 C           -2.11533707       -1.31387874       -2.29533812
 C            1.09324098       -1.66967092       -3.17196904
 C            1.47496909       -0.27937240       -2.99597171
 C           -0.26577581       -1.71056468       -3.67589284
 C            0.01465871        1.68381780       -2.70970650
 C           -1.99693342       -0.20936453       -3.24271154
 C            0.35861437        0.54658724       -3.43884578
 C           -0.70320905       -0.34269638       -3.87510433
 C           -1.76960956        2.95582131       -1.57930896
 C           -3.00420913        2.42186911       -1.03194597
 C           -3.24422417        1.13917191       -1.66661447
 C           -1.33101710        2.06111912       -2.63736447
 C           -2.37355979        1.05448059       -2.81995805
