54
Modified xyz file
 C            1.42888553       -0.08632682        3.88211849
 C            0.59059841       -1.25792975        3.71625052
 C            1.23216671       -2.13804419        2.75162705
 C            2.53308459       -0.20506727        2.94862062
 C            2.29792917       -1.37563925        2.12182943
 C            2.67329628        1.07201891        2.28371934
 C            0.64847780        1.07091124        3.47906392
 C            1.43886577        1.81673112        2.51999125
 C           -0.75978600       -0.79876878        3.43962749
 C           -0.66047462        0.60401679        3.06830303
 C           -1.58361470       -1.62735567        2.69307679
 C            0.42016448       -2.93277740        1.95840120
 C           -1.01729137       -2.86018326        2.16715807
 C            0.63694078       -2.93603597        0.52132995
 C            2.32610033       -1.22731934        0.73226057
 C            1.40571621       -1.92515671       -0.05878428
 C            3.18700366        1.06763758        0.99632977
 C            3.01572333       -0.14154001        0.19375212
 C            2.85720013        2.19262285        0.14609323
 C            0.79764724        2.40722345        1.43091502
 C            1.60002696        2.87065722        0.38912889
 C           -1.15690299        1.02234950        1.83641841
 C           -0.54559749        2.09355033        1.17408674
 C           -2.38991697       -1.04625098        1.63187777
 C           -2.10640608        0.23886980        1.17043087
 C           -1.66170304       -3.13811389        0.89754756
 C           -0.61749811       -3.33429311       -0.09565599
 C           -2.65497861       -2.10121634        0.66904090
 C           -0.87520428       -2.94403730       -1.39970341
 C            1.12473581       -1.50306283       -1.36738746
 C            0.10286819       -2.12079627       -2.09058924
 C            2.75239153        0.26526675       -1.17411148
 C            2.83061319        1.71470078       -1.22073289
 C            1.74992947       -0.37062607       -1.89855011
 C            1.00978310        3.16112029       -0.90489811
 C            1.78116176        2.43637647       -1.91467922
 C           -1.17672433        2.63869446        0.05920660
 C           -0.37420418        3.22197340       -1.00466879
 C           -2.57286870        0.63014208       -0.08631986
 C           -2.26763964        1.90354290       -0.55654997
 C           -2.93851629       -1.74705653       -0.64133569
 C           -2.18689372       -2.39491205       -1.70522789
 C           -3.03385839       -0.33633191       -0.98448361
 C           -0.61201627       -1.36758548       -3.10878458
 C           -2.02658849       -1.43793229       -2.78424386
 C           -2.71626658       -0.21748523       -2.40148962
 C            1.15651175        0.31804121       -2.96122573
 C            1.11221621        1.77432603       -2.93521451
 C           -0.09407944       -0.15302240       -3.53166730
 C           -1.00837174        2.90309141       -2.27198100
 C           -2.20924547        2.13479755       -1.99002420
 C           -2.23501762        0.99154378       -2.88496807
 C           -0.24023426        2.18213719       -3.26801705
 C           -0.98813901        0.99252404       -3.63691168
