54
Modified xyz file
 C            1.44078818       -0.17977308        4.40914378
 C            0.62231595       -1.37203457        4.28152148
 C            1.22391746       -2.20810713        3.26239837
 C            2.50713481       -0.26069058        3.42218090
 C            2.28460642       -1.44738766        2.62194891
 C            2.56717476        1.01456704        2.75297728
 C            0.61742630        0.96168186        4.05229402
 C            1.41274613        1.79679645        3.18273601
 C           -0.67963277       -0.97121203        3.77710150
 C           -0.65115862        0.46303128        3.55168025
 C            0.14937678       -2.70071532        2.42321539
 C           -1.00104642       -1.83545211        2.64996817
 C            0.46716983       -3.01263503        1.11428080
 C            2.28970072       -1.37604820        1.22471625
 C            1.67108619       -2.42084024        0.54477544
 C            2.57917146        1.03835197        1.30316565
 C            2.47423801       -0.14509266        0.56518719
 C            0.79204581        2.32496713        1.98424608
 C            1.74761336        2.15759769        0.91536822
 C           -1.14888640        0.93916102        2.34004688
 C           -0.53803800        2.02934869        1.69874330
 C           -1.64824292       -1.27284317        1.54700446
 C           -1.95934671        0.08748599        1.58866024
 C           -0.55944866       -2.86062353        0.10592478
 C           -1.55999640       -1.91191071        0.30276731
 C            1.46003768       -2.32218123       -0.88359909
 C            0.14304372       -2.88033046       -1.15711366
 C            2.14464763       -0.02276555       -0.79674112
 C            1.84644303       -1.16735045       -1.55064904
 C            1.25235134        2.16500015       -0.37271358
 C            1.77085055        1.24363005       -1.27289791
 C           -1.00345491        2.38489471        0.42873199
 C           -0.04959451        2.61641340       -0.57612577
 C           -2.68489276        0.63759869        0.54558344
 C           -2.27503185        1.94199480        0.07356261
 C           -2.16916400       -1.32655835       -0.81386491
 C           -2.92733415       -0.17280221       -0.63184846
 C           -0.52747065       -2.44543613       -2.28521229
 C           -1.76168591       -1.69388894       -2.10334555
 C            1.43778046       -1.03662349       -2.87764139
 C            0.24954809       -1.76041225       -3.30114395
 C            1.48131921        1.43250238       -2.61870283
 C            1.38336111        0.27822486       -3.48226603
 C           -0.44870733        2.84820926       -1.89250358
 C            0.39572812        2.33887798       -2.96448059
 C           -2.73563929        2.07015225       -1.29509342
 C           -3.13710704        0.74325783       -1.74160117
 C           -1.82770007        2.61560183       -2.27911941
 C           -1.86266145       -0.74603431       -3.20778600
 C           -0.62914763       -0.82498294       -3.97726649
 C            0.13733866        0.38070821       -4.22996605
 C           -0.46021805        1.66749331       -3.92958455
 C           -2.48332935        0.48308067       -3.00944249
 C           -1.82002590        1.71410285       -3.41922135
