54
Modified xyz file
 C            1.34881931        0.01770425        3.79416232
 C            2.50282390       -0.18799357        2.94615111
 C            2.44309909       -1.54749418        2.43220736
 C            0.48943805       -1.14943980        3.66786262
 C            1.18829948       -2.13796189        2.86303777
 C           -0.82187450       -0.69145696        3.23176946
 C            0.52992146        1.19058895        3.57349015
 C           -0.84218312        0.74284655        3.38928629
 C            0.84394810        2.08673161        2.47089949
 C            2.72411736        0.70129054        1.81726194
 C            1.92357926        1.82943607        1.62395093
 C            2.74821930       -1.50148958        1.01035543
 C            3.07137425       -0.12380626        0.67093317
 C            1.99292238       -2.26042255        0.12118907
 C            0.45461135       -2.87482422        1.94491411
 C            1.00678957       -3.11312057        0.62040116
 C           -1.39269359       -1.26947050        2.09795884
 C           -0.94509010       -2.54023126        1.74427199
 C           -2.06933234       -0.46967004        1.15113657
 C           -1.41952135        1.53386951        2.33197547
 C           -0.42485837        2.50066303        1.89475488
 C           -2.19698524        0.91874949        1.36357965
 C           -0.46512996        2.94182200        0.57292198
 C            1.93543182        2.43245923        0.37029121
 C            0.74114408        3.11528388       -0.10652249
 C            2.79462748        0.35103692       -0.60760194
 C            2.49904285        1.70433695       -0.75640365
 C            1.98560454       -1.89420705       -1.22422732
 C            2.42431260       -0.55811123       -1.60111273
 C            0.87343048       -2.26356166       -2.09109922
 C           -0.11298213       -3.49752178       -0.22216145
 C           -1.33270995       -3.11261363        0.47699150
 C           -0.19810035       -2.97845197       -1.57412670
 C           -2.56698415       -1.05384147       -0.03391831
 C           -2.12059542       -2.31281416       -0.42820534
 C           -1.54945381       -2.47499368       -1.75528247
 C           -3.16436768       -0.26315989       -1.01498359
 C           -2.58789859        1.73914791        0.31651714
 C           -1.64994681        2.75051722       -0.14606723
 C           -3.24182122        1.16609522       -0.83193607
 C           -1.63987836        2.70495916       -1.60184322
 C           -2.69977281        1.80509437       -2.02224314
 C            0.77119309        3.07796618       -1.55947535
 C            1.84107768        2.17739231       -1.96120616
 C           -0.42790144        2.70017973       -2.27947352
 C            1.62321648       -0.12986270       -2.74167885
 C            0.62899459       -1.15901357       -3.00642562
 C            1.29102901        1.21048415       -2.89039682
 C           -0.08693278        1.58930476       -3.16213875
 C           -1.79706007       -1.49282808       -2.70536266
 C           -2.81663951       -0.50194621       -2.40741075
 C           -2.39793617        0.76364710       -2.98546102
 C           -0.67706406       -0.79899163       -3.32858622
 C           -1.03135370        0.60769300       -3.45292105
