54
Modified xyz file
 C            1.64599897       -0.00099029        3.69821882
 C            0.81344305       -1.18396564        3.58128926
 C            1.28918973       -1.95849376        2.44888410
 C            2.55992809        0.01124828        2.56840894
 C            2.36870611       -1.20815330        1.81935688
 C            2.39113445        1.26313470        1.86976237
 C            0.78118349        1.15963747        3.58008063
 C            1.27705468        1.97161683        2.48477275
 C           -0.57291025       -0.76071805        3.59359200
 C           -0.59092020        0.69616311        3.53523990
 C           -1.48355888       -1.49051997        2.84080475
 C            0.36225024       -2.61135114        1.63639863
 C           -0.99459180       -2.55166392        1.96936918
 C            0.74764192       -2.94249715        0.33604493
 C            2.42015579       -1.16017750        0.43081593
 C            1.87062390       -2.23663582       -0.25781953
 C            2.49157016        1.28141171        0.48263126
 C            2.58466955        0.07160759       -0.22601792
 C            1.99702668        2.41218634       -0.16107747
 C            0.37639059        2.63249420        1.65177012
 C            0.86553189        3.10381620        0.43579614
 C           -1.48030930        1.34350153        2.68605908
 C           -0.99730892        2.39058489        1.79078187
 C           -2.54933497       -0.80218918        2.12976094
 C           -2.48913258        0.57635185        1.97028387
 C           -2.00469100       -2.75941200        0.94636848
 C           -2.91602270       -1.62501645        0.99098805
 C           -0.24706129       -3.15077981       -0.70821670
 C           -1.59108304       -2.93909233       -0.43218589
 C            1.64905745       -2.15195980       -1.68819999
 C            0.31179955       -2.66805571       -1.96233631
 C            2.61262323        0.09967273       -1.62294002
 C            2.12886502       -1.04685530       -2.37726912
 C            1.82670032        2.42018856       -1.60222503
 C            2.20040300        1.30185925       -2.33215129
 C           -0.06120751        3.43551507       -0.62927781
 C            0.55129928        3.05640632       -1.89143159
 C           -1.86942994        2.39070896        0.62057848
 C           -2.62581804        1.15206240        0.63892258
 C           -1.39470449        2.87196937       -0.58825407
 C           -2.93570784       -1.02911387       -0.33353512
 C           -2.34987815       -1.99730809       -1.24224166
 C           -2.63039125        0.32325245       -0.48397199
 C           -0.51586947       -2.01948245       -2.87432762
 C           -1.82125592       -1.54508041       -2.44213127
 C            1.40206809       -0.55467570       -3.53454515
 C            1.38151431        0.89585128       -3.46477966
 C            0.04258346       -1.00948368       -3.75735583
 C           -0.43839303        2.32943098       -2.66690995
 C           -1.57359888        2.07064665       -1.78912089
 C           -2.10228819        0.78121117       -1.69652530
 C           -1.87547481       -0.12381422       -2.73346349
 C           -0.00605403        1.33247039       -3.53238496
 C           -0.83241649        0.15248521       -3.70628431
