54
Modified xyz file
 C            1.60509359        0.04805816        3.78294285
 C            0.77283793       -1.11009343        3.51547077
 C            1.38998817       -1.87318647        2.44291041
 C            2.65037123        0.08103185        2.77548791
 C            2.58744111       -1.15842924        2.02686103
 C            2.53740851        1.33652124        2.05271195
 C            0.78340319        1.23076215        3.60091787
 C            1.48102472        2.11675338        2.69077603
 C           -0.59204400       -0.64997066        3.33728321
 C           -0.55842319        0.80133318        3.24465308
 C           -1.40353163       -1.35508152        2.46569171
 C            0.56743098       -2.45258811        1.47596543
 C           -0.81501407       -2.41946821        1.66837583
 C            1.07745325       -2.70469717        0.19775763
 C            2.90580278       -1.12793456        0.68018924
 C            2.24237364       -2.05580999       -0.21598134
 C            2.65650811        1.33707482        0.65875497
 C            2.98729924        0.15623258       -0.00883405
 C            2.11622374        2.39496508       -0.07112938
 C            0.71732572        2.96540872        1.90577287
 C            1.23047223        3.32735876        0.60083020
 C           -1.20793476        1.44633914        2.18988586
 C           -0.70120676        2.66978813        1.74120456
 C           -2.30402181       -0.62539434        1.59204551
 C           -2.13777796        0.74540482        1.41101366
 C           -1.70327687       -2.64242124        0.54341662
 C           -2.56784445       -1.47136383        0.43563981
 C            0.25320430       -3.27875219       -0.77093480
 C           -1.19149721       -3.21834764       -0.60646669
 C            0.54701981       -3.02804612       -2.17250421
 C            2.30595548       -1.47431170       -1.54743813
 C            2.51919614       -0.04928252       -1.37307813
 C            1.40811868       -1.90864187       -2.50691479
 C            1.57368913        2.14814531       -1.40179434
 C            1.62550653        0.86073169       -1.93225343
 C            0.09555540        3.57568409       -0.26874257
 C           -1.11098622        3.20165666        0.45302273
 C            0.37140504        2.95201642       -1.55259489
 C           -2.68405857        1.33327776        0.27194482
 C           -2.13512747        2.57783333       -0.24203472
 C           -2.80233501       -0.87978429       -0.80716363
 C           -3.03738248        0.49317904       -0.86616634
 C           -1.77044198       -2.83990212       -1.88016539
 C           -0.71112825       -2.85087855       -2.87334813
 C           -2.46396480       -1.56676875       -1.97799969
 C            0.59730961       -0.92319216       -3.20509926
 C            0.61555210        0.41096389       -2.79263805
 C           -0.68418372       -1.54178797       -3.49997056
 C           -1.88854546       -0.83902990       -3.10544806
 C           -0.69058731        2.44682054       -2.28615298
 C           -2.01520618        2.44299110       -1.68451721
 C           -2.67845207        1.21247900       -2.07415342
 C           -0.52927986        1.18815544       -2.99323702
 C           -1.83671831        0.54419828       -3.04476531
