54
Modified xyz file
 C            1.52034377       -0.05696508        3.78716322
 C            0.72470791       -1.26224413        3.65078367
 C            1.36064618       -2.11557035        2.65850764
 C            2.59425350       -0.12757392        2.81482103
 C            2.42382182       -1.34423430        2.03653577
 C            2.62313476        1.13615183        2.10375557
 C            0.67962682        1.06975166        3.42127262
 C            1.35742857        1.80598056        2.36867856
 C           -0.65634799       -0.86179636        3.44274026
 C           -0.65658871        0.56575108        3.15940143
 C           -1.47321248       -1.69399896        2.69002558
 C            0.55456441       -2.91425002        1.86318828
 C           -0.88448670       -2.87246076        2.07243772
 C            0.78150818       -2.93637949        0.42815027
 C            2.51077082       -1.25555044        0.64573727
 C            1.61760433       -1.98337516       -0.15843214
 C            3.09297713        1.12385798        0.80065555
 C            3.18782639       -0.15785181        0.11661660
 C            2.51753908        2.05197791       -0.15342281
 C            0.60596298        2.27619918        1.29346177
 C            1.25751571        2.59043643        0.09513889
 C           -1.33760115        1.03762323        2.04112733
 C           -0.78134243        2.08820147        1.30131058
 C           -2.38717575       -1.10544370        1.72438793
 C           -2.36690656        0.26560397        1.49047234
 C           -1.52649223       -3.07570600        0.78622640
 C           -0.48640810       -3.26639831       -0.20425517
 C           -2.48531119       -2.00417416        0.58379530
 C           -0.72375908       -2.81284441       -1.48967580
 C            1.45784350       -1.67810785       -1.52043516
 C            0.36001447       -2.18195914       -2.21680849
 C            3.12441262        0.10752667       -1.30382899
 C            2.80349134        1.51751472       -1.47265837
 C            2.19511092       -0.65178938       -2.10675494
 C            1.78736376        1.62540131       -2.50549937
 C            1.53250185        0.28270936       -3.00576274
 C            0.51775403        3.07370559       -0.98210041
 C            0.72261139        2.49653432       -2.30448989
 C           -1.55957508        2.72892654        0.34457834
 C           -0.90444798        3.30079117       -0.81473016
 C           -3.03075957        0.72690965        0.35950903
 C           -2.76391957        2.06979278       -0.11565401
 C           -2.62908415       -1.45697294       -0.69085857
 C           -1.92381400       -2.02850590       -1.75460929
 C           -3.11807718       -0.15193359       -0.79766101
 C           -0.24694070       -1.37232506       -3.26084047
 C            0.27792544       -0.04115651       -3.50945855
 C           -1.66493381       -1.25224333       -2.95597338
 C           -0.58509435        2.17346279       -2.85192620
 C           -1.58161681        2.80534418       -2.00377385
 C           -2.73116550        2.03529954       -1.56908559
 C           -2.85071106        0.64922121       -1.98523624
 C           -0.82247437        0.90271205       -3.37155154
 C           -2.01101519        0.15442386       -2.97499584
