54
Modified xyz file
 C            1.47542799        0.08234095        4.08531413
 C            0.58953248       -1.05767980        4.21737991
 C            1.29873044       -2.20368796        3.67954069
 C            2.51639185       -0.27916022        3.13355123
 C            2.41016142       -1.69690487        2.88456417
 C            2.41284636        0.62903967        2.00843088
 C            0.71173244        1.16747846        3.49911719
 C            1.47151829        1.66945515        2.37562251
 C           -0.70626762       -0.68721620        3.65821977
 C           -0.63301118        0.69882321        3.22792192
 C           -1.41371006       -1.59864791        2.88644628
 C            0.56917735       -3.14796584        2.85891425
 C           -0.83936167       -2.90523978        2.59599304
 C            2.21527531       -2.14849962        1.51984237
 C            1.24757037       -3.22458292        1.57388833
 C            2.36066435        0.13778188        0.69933040
 C            2.12217792       -1.22553571        0.47403168
 C            2.00314179        1.04627792       -0.30213805
 C            0.77002765        2.25016491        1.33545577
 C            1.38815447        2.24032240        0.09535922
 C           -1.21126696        1.09230018        2.02082079
 C           -0.62468173        2.16695067        1.34971897
 C           -2.10287604       -1.13701571        1.69067317
 C           -2.00029792        0.19441780        1.28594583
 C           -1.06440840       -3.17519143        1.18982047
 C            0.23097737       -3.27614873        0.54495326
 C           -1.98825989       -2.17303679        0.67999338
 C            1.45685069       -1.61054448       -0.69390185
 C            0.40594431       -2.53295024       -0.61186078
 C            1.81783596        0.58294225       -1.60827294
 C            1.49132408       -0.76602450       -1.80820955
 C            1.62118316        1.52279100       -2.62430351
 C            0.86589793        3.09723679       -0.86074193
 C            1.13276064        2.83637081       -2.25915818
 C           -1.30976761        2.71089598        0.26943050
 C           -0.53816975        3.43655589       -0.72846592
 C           -2.33006229        0.51185360       -0.03932111
 C           -2.23089177        1.84384568       -0.44306423
 C           -1.83903560       -1.76516059       -0.64048051
 C           -0.73662147       -2.25565659       -1.34509187
 C           -2.34211633       -0.51275420       -0.99787945
 C            0.70944027       -1.13827269       -2.90723889
 C           -0.54258583       -1.82095611       -2.64303417
 C            0.93653181        1.15104681       -3.84800937
 C            0.47572105       -0.20885999       -3.99489277
 C           -0.10116179        3.07165014       -2.99366126
 C           -1.16663746        3.23241646       -2.01849995
 C           -2.16251943        2.18192296       -1.85690708
 C           -0.21909733        2.02761512       -3.99036873
 C           -2.38869068       -0.20597469       -2.35804377
 C           -1.58786148       -1.02457556       -3.24690334
 C           -0.96001161       -0.16640072       -4.23367539
 C           -2.26321245        1.17155161       -2.80335509
 C           -1.40441340        1.19059554       -3.98280043
