54
Modified xyz file
 C            1.46207931        0.05326961        4.03438380
 C            0.65415028       -1.14944939        3.92842834
 C            1.40182352       -2.12295501        3.15410150
 C            2.63208374       -0.12236874        3.19230014
 C            2.63631898       -1.49280823        2.71562753
 C            2.64698523        0.95357294        2.21542775
 C            0.68726844        1.15379385        3.48922029
 C            1.42639312        1.72653184        2.37924242
 C           -0.66788146       -0.76025273        3.46898757
 C           -0.65932067        0.67598704        3.23294706
 C           -1.33711596       -1.57632024        2.56492898
 C            0.77071567       -2.72584599        1.99226606
 C           -0.59816264       -2.58468065        1.81047418
 C            2.77777673       -1.73021379        1.28987234
 C            1.65295620       -2.54192012        0.85037800
 C            3.09368137        0.68878029        0.92912495
 C            3.20931367       -0.69465970        0.47258855
 C            2.53729414        1.45510331       -0.17234065
 C            0.70651361        2.11785658        1.25183380
 C            1.31587990        2.10588233       -0.00848658
 C           -1.33097410        1.17541814        2.11966960
 C           -0.68466061        2.13333127        1.32987311
 C           -2.29735399       -0.96966178        1.65788508
 C           -2.36280576        0.41500173        1.55937535
 C           -1.12673279       -2.59537021        0.45954912
 C           -2.31057369       -1.75298328        0.43458977
 C            1.10688232       -2.32576050       -0.41832604
 C           -0.26121135       -2.56260508       -0.62743077
 C            2.82888782       -0.71357543       -0.92700024
 C            2.75908091        0.66912161       -1.36780185
 C            1.85418542       -1.60842923       -1.36503956
 C            2.01611136        0.95968793       -2.49991380
 C            0.55443677        2.42233319       -1.14015022
 C            0.92724292        1.92010120       -2.39385663
 C           -1.39366704        2.75033631        0.31039143
 C           -0.72917290        2.94043948       -0.96755040
 C           -3.08264621        0.94939394        0.49679660
 C           -2.73691533        2.28054779        0.04299385
 C           -2.67245994       -1.12765512       -0.75805423
 C           -3.28777502        0.12447540       -0.68797404
 C           -0.82378735       -2.31708837       -1.87355897
 C           -2.05157199       -1.53537934       -1.94479358
 C            1.36413557       -1.44553727       -2.65764152
 C            1.53714516       -0.15311144       -3.30222534
 C            0.03103155       -1.91431050       -2.96796111
 C           -0.09639152        1.53218687       -3.35846520
 C           -1.93033174       -0.61896554       -3.07330711
 C            0.26723114        0.23165612       -3.89227573
 C           -0.65445934       -0.87329766       -3.71844653
 C           -1.71889832        2.74625580       -2.01427664
 C           -2.96511426        2.34456225       -1.38841769
 C           -3.27224205        1.00126060       -1.84655427
 C           -1.42925532        1.79764181       -3.07027863
 C           -2.37612351        0.69067610       -2.94112987
