54
Modified xyz file
 C            1.52855800       -0.00229028        3.77083660
 C            0.71081355       -1.18580772        3.59260673
 C            1.29622433       -1.99431412        2.53640246
 C            2.62779986       -0.08022691        2.82776754
 C            2.44621534       -1.26809362        2.01238092
 C            2.71179614        1.19782066        2.15737989
 C            0.71745599        1.14526297        3.39910056
 C            1.45371757        1.89637086        2.40400426
 C           -0.65869322       -0.74540519        3.42609709
 C           -0.60272922        0.65983979        3.05217654
 C           -1.50791684       -1.57219959        2.71366766
 C            0.43625910       -2.64566117        1.65425529
 C           -0.92625777       -2.67652491        1.96217992
 C            0.85658374       -2.85574514        0.33979861
 C            2.63001369       -1.17580573        0.63280982
 C            1.95882067       -2.07020285       -0.19597302
 C            3.22552195        1.21693574        0.87030886
 C            3.17918949       -0.01318903        0.08290223
 C            2.81342704        2.30117013        0.00100514
 C            0.76643568        2.44156300        1.32068832
 C            1.52483343        2.91595565        0.25181752
 C           -1.17130764        1.06598484        1.84464043
 C           -0.58010599        2.10377754        1.11398799
 C           -2.47315523       -0.96104349        1.82440738
 C           -2.17679913        0.28257156        1.26309383
 C           -1.89600935       -3.04097911        0.94238496
 C           -2.94755640       -2.03428178        0.97557753
 C           -0.11256272       -3.04892440       -0.73191736
 C           -1.46122311       -3.17534725       -0.43402678
 C            1.61433930       -1.68033979       -1.55639982
 C            0.30903460       -2.24247003       -1.86998257
 C            2.86583369        0.35043578       -1.29336691
 C            2.79642241        1.79891118       -1.35891948
 C            1.94638597       -0.40946511       -2.01436189
 C            0.89743972        3.14257285       -1.03634575
 C            1.66949220        2.40764105       -2.03685323
 C           -1.25143957        2.61057542        0.00502813
 C           -0.48907496        3.15699321       -1.10737728
 C           -2.71363930        0.63787765        0.01794450
 C           -2.37286496        1.86628202       -0.54167071
 C           -3.30611218       -1.72468073       -0.38787202
 C           -2.43613049       -2.49615119       -1.26577968
 C           -3.23508835       -0.34527798       -0.82806684
 C           -0.61458333       -1.48098138       -2.58623045
 C           -1.97822736       -1.59793109       -2.31427915
 C           -2.78798202       -0.39345701       -2.20718765
 C            1.13616555        0.20493382       -2.97267396
 C            1.00417655        1.65726879       -2.99630131
 C           -0.16477080       -0.36689841       -3.28965784
 C           -1.13840819        2.75066241       -2.34108461
 C           -2.32349778        1.98741414       -1.99177838
 C           -2.33351728        0.77624483       -2.79606621
 C           -0.37746234        1.97756109       -3.30363418
 C           -1.08584004        0.73106803       -3.53744363
