54
Modified xyz file
 C            1.13693790       -0.12246461        3.87008400
 C            2.35518436       -0.27766970        3.09903623
 C            2.23291313       -1.50710818        2.32991145
 C            0.30117121       -1.28178581        3.59939483
 C            0.87501439       -1.98232510        2.46254418
 C           -1.06632204       -0.82231018        3.50754224
 C            0.32075164        1.06549975        3.67752253
 C           -1.05947290        0.63238564        3.56539217
 C            0.77314009        2.09032679        2.85293040
 C            2.75463814        0.77986232        2.18619757
 C            2.07006967        1.98797813        2.19308516
 C            2.72911883       -1.24641843        1.00139071
 C            3.10448116        0.15727936        0.91687683
 C            2.08016467       -1.80509498       -0.08738627
 C            0.10978426       -2.16860509        1.30760225
 C            0.74314461       -2.22485555        0.05002527
 C           -1.83852319       -1.20249210        2.34449190
 C           -1.28436101       -2.04519189        1.38605359
 C           -1.87127320        1.12242023        2.46085868
 C           -2.55155193       -0.02583481        1.88339739
 C           -0.14825941        2.71814633        1.91645942
 C           -1.36776214        2.10726344        1.61746280
 C            1.99927059        2.75455527        0.96462743
 C            0.65043148        3.28487814        0.84404428
 C            2.90190756        0.83147381       -0.29381105
 C            2.33679275        2.10881677       -0.29201906
 C            2.51674587       -1.35295668       -1.32071306
 C            2.79663950        0.06668349       -1.45594839
 C            1.83423486       -1.78841448       -2.51468071
 C           -0.01356515       -2.53989964       -1.09171812
 C            0.55678457       -2.44508244       -2.36525552
 C           -2.04260759       -2.24651033        0.24328988
 C           -1.39394634       -2.68468923       -0.97269620
 C           -2.95243812        0.00585021        0.54999761
 C           -2.99886163       -1.21226123       -0.12708362
 C           -1.91348255        2.23632408        0.34148577
 C           -2.78318302        1.18736769       -0.17691387
 C            0.21580037        3.09862122       -0.52684786
 C            1.28299223        2.42584897       -1.24873193
 C           -1.09355998        2.72099574       -0.76289277
 C            1.95056188        0.54285890       -2.53546472
 C            1.62192542       -0.61246388       -3.34637010
 C            0.98176957        1.50233810       -2.24911153
 C           -0.24933177       -1.99498368       -3.48872233
 C            0.29384005       -0.71263159       -3.90568004
 C           -2.26573443       -2.28863397       -2.06926642
 C           -3.13476033       -1.23497824       -1.57145901
 C           -1.67458250       -1.81946724       -3.30404250
 C           -2.59405364        1.14575878       -1.62287198
 C           -1.38888552        1.90275492       -1.92189337
 C           -0.35446397        1.29627610       -2.63453865
 C           -0.68408415        0.29560735       -3.55128671
 C           -2.84347829       -0.02853166       -2.32033835
 C           -1.95766595       -0.39451081       -3.41396040
