54
Modified xyz file
 C            1.26711837       -0.23259187        4.59010577
 C            0.45347391       -1.37452911        4.22697852
 C            1.09894282       -2.05350627        3.11170304
 C            2.45701336       -0.27472335        3.76459345
 C            2.23696568       -1.26334184        2.71243648
 C            2.72305995        1.09435637        3.38441809
 C            0.53856079        0.97152693        4.21245160
 C            1.47414251        1.83739445        3.54263231
 C           -0.80308267       -0.85885322        3.72452372
 C           -0.65259182        0.56178549        3.49762808
 C            0.07784364       -2.30940088        2.12363514
 C           -1.13641295       -1.66018385        2.57836455
 C            0.37954474       -2.17580100        0.76656386
 C            2.36255319       -0.88472562        1.37198690
 C            1.50271828       -1.42009762        0.38731022
 C            3.18481468        1.33422133        2.03879532
 C            3.11321913        0.24786329        1.07489511
 C            1.12073976        2.36895315        2.23910011
 C            2.35829988        2.39945181        1.50347330
 C           -0.91868064        1.04403153        2.20886844
 C           -0.03118862        1.92637621        1.57133493
 C           -1.88173303       -1.07279826        1.58184710
 C           -1.81158659        0.31744916        1.42053051
 C           -0.71327068       -2.20952960       -0.10393351
 C           -1.94777181       -1.79672967        0.41506611
 C           -0.48661885       -2.09725110       -1.47609578
 C            1.60288611       -0.97306240       -0.94809666
 C            0.67781996       -1.44171849       -1.90853961
 C            2.90846449        0.89306552       -0.19231439
 C            2.27468949        2.17113255        0.08934144
 C            2.36570789        0.17498663       -1.24283774
 C           -0.11034387        2.09157653        0.16979030
 C            1.06509263        2.39580058       -0.54614047
 C           -2.17989015        0.82662344        0.17224661
 C           -1.24442774        1.61359152       -0.52199502
 C           -2.92697040       -1.38455431       -0.45948095
 C           -3.08852283        0.05339681       -0.55366274
 C           -1.58974976       -2.24203808       -2.32840831
 C           -2.89369692       -1.91115587       -1.79683284
 C           -1.55316522       -1.73174949       -3.68344371
 C            0.76448957       -0.95626655       -3.22215421
 C           -0.37933723       -1.01700657       -4.11354611
 C            1.93059450        0.97990217       -2.28216088
 C            1.10379651        2.11335598       -1.89986637
 C            1.32039676        0.35702676       -3.42170254
 C           -1.28887578        1.68938415       -1.93189120
 C           -0.78315978        0.35927263       -4.39601410
 C           -0.12584739        1.99065567       -2.63267040
 C            0.22033830        1.21728888       -3.81439715
 C           -3.34863479        0.36774031       -1.93855124
 C           -3.48678364       -0.89833782       -2.64522995
 C           -2.68600018       -0.83054375       -3.85023736
 C           -2.37225653        1.16200223       -2.64189649
 C           -2.14268701        0.51028454       -3.92852131

