54
Modified xyz file
 C            1.43085414        0.11116260        4.12172172
 C            0.65417113       -1.10665912        3.98459170
 C            1.53201549       -2.09632721        3.39806490
 C            2.57049806       -0.00091775        3.22495819
 C            2.66175254       -1.38329762        2.81451223
 C            2.42338896        1.02071526        2.20419432
 C            0.61302878        1.20928210        3.64364150
 C            1.39135588        1.93569641        2.65977565
 C           -0.58798124       -0.77102474        3.30029748
 C           -0.67335487        0.67569343        3.22654505
 C           -1.00940475       -1.52360633        2.20440046
 C            0.99217923       -2.96279099        2.37218057
 C           -0.34903171       -2.71314070        1.87545438
 C            2.67660894       -1.68725489        1.39762760
 C            1.87514838       -2.87777757        1.22018628
 C            2.46271672        0.67797890        0.85049574
 C            2.54169085       -0.66901507        0.45693899
 C            2.04328458        1.63417892       -0.08179945
 C            0.68920124        2.64724174        1.70131066
 C            1.17439179        2.64236514        0.33168910
 C           -1.28592774        1.25192475        2.11896703
 C           -0.74570436        2.43556611        1.61452024
 C           -1.86460292       -0.93788720        1.26462179
 C           -2.06021807        0.45184676        1.27384512
 C           -2.24817881       -1.69094326        0.15323714
 C           -0.32935970       -3.14491104        0.49099725
 C            1.03893658       -2.96555434        0.03446276
 C           -1.35059658       -2.71994449       -0.34004202
 C            2.15617491       -1.01802950       -0.83685134
 C            1.26726784       -2.08751589       -1.02321221
 C            2.11507818        1.33365706       -1.43896724
 C            2.27971348       -0.05382710       -1.82671019
 C            1.14787136        1.92577764       -2.35327803
 C            0.04406720        3.00002548       -0.51415762
 C           -1.15942830        2.90212664        0.30555479
 C            0.01541097        2.55977761       -1.83657957
 C           -2.76242583        1.06889442        0.23445412
 C           -2.30629763        2.36291878       -0.25172734
 C           -2.83020700       -1.03922896       -1.00779042
 C           -3.19838480        0.29385469       -0.91520426
 C           -1.02250450       -2.35287201       -1.70644634
 C            0.29126294       -2.00344312       -2.02014951
 C           -2.11823094       -1.52794873       -2.18572031
 C            1.59871964       -0.24837306       -3.09230789
 C            1.03992862        1.03144795       -3.49435238
 C            0.53748456       -1.23083156       -3.15086171
 C           -1.90969662       -0.69742945       -3.28148866
 C           -0.26080829        0.77903026       -4.07853717
 C           -0.57899860       -0.62473481       -3.86112146
 C           -1.21720276        2.46281657       -2.49102458
 C           -2.42843847        2.36552779       -1.69577460
 C           -3.11475041        1.14669024       -2.08815591
 C           -1.38787125        1.56432628       -3.62116147
 C           -2.46459685        0.64476297       -3.28582508
