54
Modified xyz file
 C            1.65762125        0.13664639        3.98396315
 C            0.75579323       -1.00224001        3.97477965
 C            1.37852329       -2.04739326        3.18629499
 C            2.68341066       -0.10452116        2.98239609
 C            2.58199690       -1.48972263        2.58466626
 C            2.55931017        0.92104764        1.95783630
 C            0.90353054        1.30110485        3.56088699
 C            1.62125367        1.91382342        2.46074334
 C           -0.56276087       -0.52989025        3.59051732
 C           -0.47540269        0.89963454        3.33619678
 C           -1.34513360       -1.31123388        2.75227726
 C            0.60779485       -2.68655122        2.12989295
 C           -0.74678961       -2.41955116        2.01061271
 C            2.53778219       -1.78737325        1.17100429
 C            1.42717472       -2.69174750        0.93337947
 C            2.51478131        0.55547309        0.60515041
 C            2.75938660       -0.77807667        0.23784713
 C            1.94331160        1.44537614       -0.31895506
 C            0.88217400        2.63788341        1.54367699
 C            1.25161987        2.56346442        0.14649986
 C           -1.15537354        1.44977425        2.24789060
 C           -0.56885449        2.52826000        1.58061418
 C           -2.28150221       -0.65567624        1.86052500
 C           -2.16708488        0.71443834        1.61789625
 C           -1.35074474       -2.44005891        0.68906161
 C           -2.50542857       -1.56382154        0.74715972
 C            0.84035026       -2.65847168       -0.33092512
 C           -0.54373345       -2.43518075       -0.45115741
 C            2.59341743       -1.14974710       -1.09008548
 C            1.67764674       -2.24762467       -1.36212193
 C            1.84004213        1.09612500       -1.66928677
 C            2.33191984       -0.13615131       -2.08747129
 C            1.01603912        1.84693740       -2.51599085
 C            0.10815653        3.05245247       -0.60074130
 C           -1.05429956        2.92479427        0.26874003
 C            0.00706874        2.71953856       -1.94179313
 C           -2.82316015        1.25034530        0.50996261
 C           -2.22108700        2.35511666       -0.21844277
 C           -3.01878336       -1.05549420       -0.43300557
 C           -3.40559607        0.34356440       -0.46599147
 C           -1.08989056       -1.98722380       -1.66671137
 C           -2.33396454       -1.35027887       -1.68096738
 C            1.13217492       -2.05034482       -2.68377000
 C            1.71656103       -0.82772998       -3.21017733
 C           -0.30099086       -1.93565269       -2.81458047
 C            0.42171034        1.23741365       -3.69506591
 C            0.69209398       -0.15507972       -3.98088195
 C           -0.54912578       -0.89488390       -3.79910240
 C           -1.28016873        2.32296533       -2.49491736
 C           -2.35416158        2.08599722       -1.64285865
 C           -3.11702218        0.85851083       -1.79338763
 C           -2.56098441       -0.22785432       -2.58231870
 C           -1.01959612        1.39466993       -3.58689150
 C           -1.61100636        0.06421796       -3.55287316
