54
Modified xyz file
 C            0.99812672       -0.18005684        4.00709468
 C            2.24025022       -0.32859061        3.26974287
 C            2.18884058       -1.59083267        2.55152341
 C            0.22177512       -1.39520242        3.82200349
 C            0.92690537       -2.23693050        2.86806043
 C           -1.14970035       -1.00950294        3.54453115
 C            0.13356148        0.95404893        3.71576728
 C           -1.20080008        0.44125883        3.45879787
 C            0.60868383        1.99227886        2.92270394
 C            2.61774121        0.70466421        2.32458311
 C            1.95301162        1.92326117        2.35997420
 C            2.51907311       -1.33197103        1.15702843
 C            2.86651331        0.06962137        1.03452228
 C            1.75811574       -1.92412018        0.15611814
 C            0.22116881       -2.84921410        1.83899538
 C            0.80761194       -2.88145537        0.50942346
 C           -1.80397416       -1.54548085        2.36540521
 C           -1.20299066       -2.58204534        1.66448253
 C           -1.86691896        0.79509903        2.21309547
 C           -2.36556792       -0.43142164        1.61856980
 C           -0.25515572        2.54075558        1.88888963
 C           -1.30731217        1.77113535        1.38930605
 C            1.95590604        2.73902657        1.16193892
 C            0.60637707        3.24981532        0.97127408
 C            2.54542663        0.74622247       -0.14092122
 C            2.35195338        2.12666658       -0.09279393
 C            1.67604726       -1.30986877       -1.09661477
 C            2.07295271        0.02805738       -1.24658046
 C            0.95886311       -1.94985163       -2.11073237
 C           -0.27555037       -3.17549160       -0.40703955
 C           -1.49265427       -2.71917010        0.24704128
 C           -0.10654358       -2.87325368       -1.74873012
 C           -2.44456981       -0.51326911        0.23420280
 C           -2.26779545       -1.75304738       -0.39112930
 C           -1.55627622        1.72540633        0.00731395
 C           -2.30708682        0.65831901       -0.50997982
 C            0.31706459        3.17083959       -0.44170428
 C            1.54081437        2.75986248       -1.11219484
 C           -0.88073703        2.60333806       -0.86085351
 C            1.77044895        0.72259882       -2.42186612
 C            1.41793087        2.13284717       -2.34083082
 C            0.52097547       -1.20628574       -3.28046538
 C            0.92019097        0.11466886       -3.43348192
 C           -1.28514086       -2.48064074       -2.50022164
 C           -2.36581445       -1.82834438       -1.77865583
 C           -0.85656273       -1.58950127       -3.56103349
 C           -2.67384204        0.64098271       -1.84966544
 C           -2.73521533       -0.63941285       -2.52586600
 C           -1.87490693       -0.56366282       -3.69748318
 C           -1.04271944        2.47125835       -2.23748965
 C            0.15579520        2.29210671       -3.04067269
 C           -0.03984963        1.11990102       -3.86968969
 C           -2.05505904        1.57849609       -2.75835117
 C           -1.45938165        0.81608771       -3.84734266
