54
Modified xyz file
 C            1.29822265        0.07629163        3.87012795
 C            0.47157073       -1.07936721        3.57162990
 C            1.16188550       -1.86972961        2.57168559
 C            2.36147381        0.12711786        2.88008712
 C            2.29985620       -1.08900698        2.10792358
 C            2.25459764        1.38495211        2.17608719
 C            0.48185366        1.26036529        3.68610591
 C            1.23567663        2.17792273        2.85739689
 C           -0.86623128       -0.61256505        3.27295797
 C           -0.82562186        0.84094411        3.21236777
 C           -1.59811437       -1.29981837        2.32223444
 C            0.41752141       -2.56706120        1.61958116
 C           -0.96951446       -2.38773321        1.57629319
 C            1.08462566       -2.97185506        0.46399042
 C            2.52929970       -1.03965935        0.74111595
 C            2.26255180       -2.21886908        0.06069744
 C            2.31055762        1.39572173        0.77802128
 C            2.37764768        0.18550002        0.06164112
 C            1.90770709        2.55911294        0.11882823
 C            0.51691309        3.08998959        2.10477232
 C            1.09852372        3.51853684        0.85132090
 C           -1.37919060        1.51734488        2.12128462
 C           -0.88526872        2.79126619        1.83055244
 C           -2.40147202       -0.54355564        1.38275484
 C           -2.11087787        0.80290747        1.15482005
 C           -1.68124632       -2.49932994        0.30946084
 C           -2.66659024       -1.42504818        0.26350812
 C            0.33499709       -3.27266606       -0.74439843
 C           -0.99280647       -2.86000836       -0.84741983
 C            2.33102002       -2.23238345       -1.38088336
 C            1.25098255       -3.07832105       -1.85805882
 C            2.06989205        0.18939101       -1.30959539
 C            2.22906787       -0.96690241       -2.06753595
 C            1.36880582        2.47008023       -1.22820089
 C            1.30737125        1.22776017       -1.83660708
 C            0.00648404        3.94085762       -0.00328207
 C           -1.22136378        3.41283464        0.56990443
 C            0.19178717        3.30894387       -1.29498811
 C           -2.42328393        1.37842717       -0.09107312
 C           -1.86557323        2.60669867       -0.44092247
 C           -1.05748049        2.67413901       -1.65155833
 C           -3.00646414       -0.86872776       -0.95557540
 C           -2.82180437        0.55972447       -1.15091887
 C           -1.54053304       -2.54711304       -2.09396766
 C           -2.58786315       -1.54382101       -2.17271680
 C            0.75649071       -2.49246567       -3.08544252
 C            1.36314663       -1.17359786       -3.21713665
 C           -0.67384356       -2.33591103       -3.24311054
 C            0.22900229        0.93141038       -2.67986009
 C           -1.01533500        1.53892559       -2.45094782
 C           -2.15259510        0.74017080       -2.42727827
 C           -2.15157799       -0.53024471       -3.12091701
 C            0.29720389       -0.21775347       -3.46764740
 C           -0.91208393       -0.98382231       -3.71710877
