54
Modified xyz file
 C            1.55668369       -0.00121181        3.80512905
 C            0.74880916       -1.19444784        3.63031678
 C            1.55474881       -2.15508806        2.91467901
 C            2.69648628       -0.11004275        2.90865566
 C            2.72860163       -1.46009872        2.39962435
 C            2.61198582        0.97857906        1.95934645
 C            0.76342576        1.13542967        3.37200277
 C            1.51869269        1.84815601        2.36523383
 C           -0.52304418       -0.79506860        3.05332340
 C           -0.55056222        0.65768465        3.00331641
 C           -1.05459100       -1.50627307        1.97521853
 C            0.95342160       -2.84997350        1.79780101
 C           -0.39277715       -2.65142412        1.49210594
 C            2.75347544       -1.66324922        0.96038358
 C            1.91757608       -2.82090070        0.71250670
 C            2.78928323        0.74213890        0.59675656
 C            2.66885451       -0.57003233        0.09237774
 C            2.53137019        1.82423495       -0.23753366
 C            0.81879503        2.50993941        1.36150940
 C            1.51246283        2.77370941        0.18322815
 C           -1.17959797        1.26041662        1.92286056
 C           -0.57235792        2.36137221        1.30141565
 C           -2.02450162       -0.87214707        1.18856298
 C           -2.13143883        0.52239966        1.22166533
 C           -2.67362281       -1.58260382        0.18485511
 C           -0.85984951       -3.27744839        0.33896186
 C           -2.08376648       -2.81797045       -0.28359371
 C            1.45103215       -3.04238575       -0.57252284
 C            0.09511532       -3.54600283       -0.72406893
 C            2.25660148       -0.79770701       -1.23364031
 C            1.63933557       -2.00255968       -1.57242803
 C            2.37780065        1.60726094       -1.65583677
 C            2.08417007        0.26971350       -2.10874505
 C            0.79211469        3.21877387       -0.99718309
 C            1.32650781        2.48889756       -2.13726888
 C           -1.27535609        3.03354806        0.30342588
 C           -0.57829035        3.42471363       -0.91426368
 C           -2.94347161        1.18092931        0.30096931
 C           -2.58614911        2.53570286       -0.07921539
 C           -3.12975139       -0.87502345       -0.99591476
 C           -3.37549589        0.48388346       -0.90150985
 C           -1.82874913       -2.66335719       -1.71112576
 C           -0.44869282       -3.00357487       -1.95623059
 C            0.44922685       -1.96208864       -2.41100654
 C           -2.28974806       -1.34262548       -2.08526590
 C            0.87110020        0.32272604       -2.91374200
 C            0.42435932        1.70302822       -2.96563932
 C           -0.04920389       -0.71892947       -2.80516844
 C           -1.42420281       -0.43628612       -2.70652165
 C           -1.40636902        3.03128555       -2.04174670
 C           -2.70261686        2.63849979       -1.52369716
 C           -2.99658610        1.31158416       -2.03135983
 C           -0.93298076        1.97788960       -2.92685773
 C           -1.87826329        0.87602380       -2.85414542
