54
Modified xyz file
 C            1.52256838       -0.01006727        3.71489983
 C            0.71481640       -1.20215489        3.54109159
 C            1.30317726       -2.00367385        2.48141870
 C            2.61651086       -0.07486109        2.76472898
 C            2.48573012       -1.30266668        1.99863783
 C            2.64524115        1.18049215        2.04231790
 C            0.69891655        1.13099373        3.35419114
 C            1.37502932        1.84763033        2.28814581
 C           -0.66325093       -0.78072484        3.39299336
 C           -0.64877318        0.64793823        3.11433722
 C           -1.50449098       -1.58636601        2.64331080
 C            0.45576948       -2.62721202        1.56766729
 C           -0.91807409       -2.63818090        1.82236430
 C            0.92869391       -2.88607386        0.28061388
 C            2.75025068       -1.26706331        0.63094002
 C            2.11004254       -2.18579357       -0.20166761
 C            3.13827827        1.16578099        0.74792063
 C            3.33199012       -0.11882146        0.08729267
 C            2.54474414        2.05396561       -0.23374573
 C            0.62516500        2.29398853        1.20244192
 C            1.27706995        2.58273086       -0.00219358
 C           -1.34323770        1.12710737        2.00600960
 C           -0.76601176        2.13419668        1.22251380
 C           -2.53770073       -0.95881320        1.84113656
 C           -2.42365837        0.38901005        1.50861332
 C           -1.85426084       -2.91462811        0.74517363
 C           -2.90186028       -1.90690841        0.80296664
 C            0.00446788       -3.02862613       -0.83844186
 C           -1.36542703       -2.97248713       -0.61756705
 C            1.91289808       -1.89735557       -1.61755665
 C            0.58204816       -2.35140704       -1.98853124
 C            3.26573129        0.12040299       -1.34504272
 C            2.84240345        1.49817800       -1.54210394
 C            2.42276424       -0.72693077       -2.16408512
 C            1.80288278        1.51285343       -2.55638382
 C            1.56366826        0.13509919       -2.96355675
 C            0.53577826        3.02249975       -1.09646758
 C            0.72615264        2.37615655       -2.38798914
 C           -1.53737405        2.77019169        0.25654972
 C           -0.88305244        3.27296802       -0.93417355
 C           -3.12034828        0.85524012        0.39613483
 C           -2.77821513        2.14957220       -0.16047503
 C           -3.12886544       -1.41057246       -0.54302727
 C           -2.19591851       -2.09350194       -1.42872059
 C           -3.37066883       -0.05233592       -0.71547952
 C           -0.22027201       -1.55920939       -2.80352310
 C            0.27474816       -0.27891563       -3.28745922
 C           -1.63759445       -1.41251108       -2.50675367
 C           -0.58669249        1.99360066       -2.87938030
 C           -1.56945560        2.71540792       -2.09005634
 C           -2.74656018        2.01765274       -1.60950557
 C           -2.91940014        0.61083167       -1.92706408
 C           -0.82617117        0.67261985       -3.24842044
 C           -2.01020271       -0.02924679       -2.76504049
