54
Modified xyz file
 C            1.48370313        0.06715960        3.96087283
 C            0.68126980       -1.14022393        3.88878640
 C            1.40996218       -2.11100345        3.09518618
 C            2.62078677       -0.10262167        3.07039685
 C            2.60677907       -1.45973853        2.58274095
 C            2.58177051        0.96865122        2.09708829
 C            0.67871182        1.16420536        3.44855391
 C            1.41972183        1.79672988        2.38691255
 C           -0.65337230       -0.76149598        3.46402620
 C           -0.63583735        0.65685830        3.13724561
 C           -1.35924966       -1.61681699        2.62863613
 C            0.73268524       -2.74900469        1.97663119
 C           -0.64219830       -2.62521039        1.84960250
 C            2.64299795       -1.66771685        1.14994364
 C            1.56225821       -2.57550375        0.79843397
 C            2.88765131        0.71782130        0.75647441
 C            2.92651750       -0.60923344        0.28409950
 C            2.60654635        1.75730806       -0.13098050
 C            0.73166100        2.33165726        1.30561339
 C            1.51921641        2.65880419        0.21100034
 C           -1.26422341        1.07941866        1.96686492
 C           -0.61606388        1.97498342        1.09381592
 C           -2.36075308       -1.04435515        1.74913254
 C           -2.34322540        0.32837785        1.50207319
 C           -1.22338230       -2.63730642        0.51798838
 C           -2.49829985       -1.95700009        0.62786750
 C            0.98418855       -2.44799500       -0.46497854
 C           -0.41618659       -2.39349176       -0.59463622
 C            2.74678129       -0.86830977       -1.07490445
 C            1.79007335       -1.89667472       -1.45545713
 C            2.54612623        1.51814885       -1.56055096
 C            2.62793120        0.21858043       -2.02875467
 C            0.89126079        3.09677234       -1.00990609
 C            1.55305869        2.42513660       -2.11817317
 C           -1.26620548        2.36577761       -0.09118205
 C           -0.53161497        2.89648160       -1.15436192
 C           -3.09247495        0.81152792        0.43942168
 C           -2.55361785        1.89992841       -0.35435831
 C           -3.10015818       -1.48346523       -0.52393564
 C           -3.67967445       -0.15399479       -0.47485757
 C           -1.01427538       -1.91429227       -1.77345016
 C           -2.37123881       -1.58083295       -1.77842933
 C            1.21302483       -1.52751607       -2.72602003
 C            1.73892880       -0.22159784       -3.09408236
 C           -0.22623622       -1.47547717       -2.83678212
 C            0.51831797        1.91109712       -3.00217683
 C           -0.75831015        2.39797504       -2.50310297
 C            0.61470718        0.61306825       -3.48954248
 C           -0.56753258       -0.23298550       -3.51526559
 C           -2.94821154        1.67527655       -1.73807507
 C           -3.63561356        0.40031970       -1.81366253
 C           -2.81999304       -0.48531108       -2.62514186
 C           -1.91832882        1.68064545       -2.76052403
 C           -1.82035992        0.32646451       -3.29611638
