54
Modified xyz file
 C            1.31239844        0.00000000        4.26114398
 C            0.57826391       -1.17440419        3.82039921
 C            1.49548975       -2.01738391        3.09297215
 C            2.59610504       -0.00000000        3.57767064
 C            2.70610681       -1.24479891        2.84626749
 C            2.70610681        1.24479891        2.84626749
 C            0.57826391        1.17440419        3.82039921
 C            1.49548975        2.01738391        3.09297215
 C           -0.61973522       -0.72473685        3.14047691
 C           -0.61973522        0.72473685        3.14047691
 C           -1.04456988       -1.36298917        1.97726396
 C            1.06615343       -2.55234515        1.81512228
 C           -0.23544957       -2.33418917        1.36067445
 C            2.90265481       -1.21274698        1.40461779
 C            2.15645315       -2.34124591        0.88477602
 C            2.90265481        1.21274698        1.40461779
 C            2.86447225        0.00000000        0.70939985
 C            1.06615343        2.55234515        1.81512229
 C            2.15645315        2.34124591        0.88477602
 C           -1.04456988        1.36298917        1.97726396
 C           -0.23544958        2.33418917        1.36067445
 C           -1.99615149       -0.70068794        1.20145919
 C           -1.99615149        0.70068794        1.20145919
 C           -2.57720478       -1.40292256        0.15225778
 C           -0.52402453       -2.70199327        0.04277292
 C           -1.81211743       -2.48285514       -0.43760031
 C            1.85980452       -2.36961791       -0.46516770
 C            0.53194794       -2.80036132       -0.86873843
 C            2.50053799       -0.00000000       -0.64357080
 C            2.17666600       -1.20191051       -1.27196012
 C            1.85980452        2.36961791       -0.46516770
 C            2.17666600        1.20191051       -1.27196012
 C           -0.52402453        2.70199327        0.04277292
 C            0.53194794        2.80036132       -0.86873843
 C           -2.57720478        1.40292256        0.15225778
 C           -1.81211743        2.48285514       -0.43760031
 C           -3.25866030       -0.69453738       -0.91666432
 C           -3.25866030        0.69453738       -0.91666433
 C           -2.04972491       -2.46632210       -1.87257045
 C           -3.03185421       -1.43166889       -2.15155248
 C            0.35615170       -2.33204915       -2.23317433
 C            1.26310901       -1.20433113       -2.40877643
 C           -0.92266950       -2.26745960       -2.76518827
 C            1.26310901        1.20433113       -2.40877643
 C            0.35615170        2.33204915       -2.23317433
 C            0.77997008        0.00000000       -2.91868983
 C           -2.04972491        2.46632210       -1.87257045
 C           -3.03185421        1.43166889       -2.15155248
 C           -0.92266950        2.26745960       -2.76518827
 C           -2.60073143       -0.72545167       -3.34472267
 C           -1.25146033       -1.17037860       -3.65740839
 C           -0.39037872       -0.00000000       -3.67702629
 C           -2.60073143        0.72545167       -3.34472267
 C           -1.25146033        1.17037860       -3.65740839
