54
Modified xyz file
 C            1.20254398       -0.02793551        3.87560922
 C            2.44778594       -0.34809354        3.21041716
 C            2.25697814       -1.60400136        2.49693337
 C            0.33077462       -1.18383346        3.74826842
 C            0.88259206       -2.02832554        2.70418731
 C           -1.02155612       -0.69078172        3.59514330
 C            0.44263427        1.13214730        3.43789662
 C           -0.95918646        0.76027979        3.51471597
 C            0.88348240        1.89758383        2.35464190
 C            2.99229686        0.61025156        2.27185829
 C            2.17706055        1.74130666        1.85742751
 C            2.73015951       -1.41802460        1.13524282
 C            3.36091929       -0.11824632        1.07020026
 C            1.90802611       -1.80061939        0.08183474
 C            0.10577404       -2.34315604        1.58902564
 C            0.74972323       -2.52771802        0.36160613
 C           -1.79820021       -1.15276775        2.46394974
 C           -1.28102856       -2.12696786        1.61697318
 C           -1.85531091        1.18824939        2.45480066
 C           -2.44772512       -0.00042859        1.86258046
 C           -0.04724171        2.60764755        1.59864930
 C           -1.45220473        2.21674395        1.62263031
 C            0.27831245        3.00623109        0.23473332
 C            2.42546535        1.94039815        0.43832340
 C            3.05357023        0.72730343       -0.06529063
 C            1.46517004        2.56452753       -0.35555814
 C            2.03628435       -1.15984470       -1.15659962
 C            2.52893069        0.15125206       -1.21716525
 C            1.37391545       -1.69607836       -2.25879996
 C            0.05135320       -3.11306574       -0.68635654
 C            0.42435997       -2.77459731       -2.04799989
 C           -2.01977100       -2.39304256        0.46969369
 C           -1.39353835       -3.12116145       -0.61518580
 C           -2.72467039       -0.04174837        0.49382660
 C           -2.78626237       -1.29983635       -0.11196477
 C           -1.93420172        2.23869019        0.25647778
 C           -0.96920924        2.99819827       -0.52130891
 C           -2.52310827        1.09980431       -0.29518969
 C           -0.94010798        2.83989204       -1.89903420
 C            1.49307492        2.30382368       -1.72492151
 C            2.02409559        1.02676540       -2.17489633
 C            0.33851773        2.62147677       -2.54584722
 C            0.80899715       -0.80535749       -3.25769001
 C            1.17286808        0.53500957       -3.24468597
 C            0.17633114        1.55692753       -3.52382992
 C           -0.79159391       -2.45409311       -2.78074100
 C           -1.90937406       -2.59279883       -1.86687750
 C           -2.71969954       -1.42541094       -1.55858738
 C           -0.58721529       -1.18109343       -3.44687447
 C           -2.64577540        1.01659448       -1.68171470
 C           -1.90912505        1.95147729       -2.51862588
 C           -1.22560784        1.18633189       -3.55019275
 C           -2.59695321       -0.27976404       -2.33265894
 C           -1.58332990       -0.21012133       -3.37905014
