54
Modified xyz file
 C            1.26370833       -0.14422610        3.30641889
 C            2.32277761       -0.35036452        2.33538586
 C            2.25505076       -1.74231467        1.90942038
 C            0.39357174       -1.30784409        3.27160628
 C            1.00853056       -2.30199966        2.41214401
 C           -0.95131113       -0.85133055        2.96736715
 C            0.43571930        1.03916431        3.19272791
 C           -0.93990023        0.60426319        2.97867496
 C            0.92348674        2.11850253        2.47434511
 C            2.61059489        0.65339882        1.40678525
 C            2.02339818        1.91286592        1.53881641
 C            3.20882278        0.31737704        0.19450627
 C            2.71019642       -2.09150574        0.64435680
 C            3.37242612       -1.08165819       -0.15992102
 C            1.85822674       -2.87335881       -0.24031216
 C            0.19547649       -3.04557474        1.56626150
 C            0.67008837       -3.41009634        0.23898683
 C           -1.70207634       -1.52018008        2.00331316
 C           -1.21915512       -2.71281990        1.45825033
 C           -2.74457666       -0.83871554        1.37299079
 C           -1.77007358        1.29922780        2.09758515
 C           -2.80873776        0.61207573        1.47356840
 C           -0.02621586        3.01915317        1.85320405
 C           -1.37697944        2.54761591        1.60801052
 C            1.74548831        2.69632502        0.34384417
 C            0.53119001        3.45622243        0.58410154
 C            2.83132233        1.04025354       -1.01129165
 C            1.96437605        2.12955384       -0.90965870
 C            2.93786568       -1.24800080       -1.53681730
 C            1.87988950       -2.24170635       -1.55337139
 C            2.66745774        0.06586129       -2.08414777
 C            0.68193622       -1.96116836       -2.21586071
 C           -0.48013018       -3.45298220       -0.64439026
 C           -1.66022489       -3.12646919        0.13863815
 C           -0.48584465       -2.61617160       -1.83157102
 C           -3.16107809       -1.21259161        0.02612348
 C           -2.47758502       -2.21740781       -0.63883613
 C           -1.75025610       -1.89548542       -1.86140298
 C           -3.35621923        1.11933792        0.22752182
 C           -3.47350537        0.00362060       -0.69648230
 C           -1.73628436        2.94754101        0.25356483
 C           -0.52766020        3.41914958       -0.40719252
 C           -2.66497702        2.19661859       -0.45575468
 C            1.09792942        2.43119018       -1.96368529
 C           -0.22487189        2.97728202       -1.68881403
 C            1.61196516        0.20644163       -2.97022810
 C            0.58002160       -0.82318957       -3.01780265
 C            0.95836165        1.49591877       -3.06496678
 C           -1.78471752       -0.60083999       -2.38215852
 C           -2.70444666        0.32608801       -1.88458179
 C           -2.34761325        1.73644275       -1.80011693
 C           -1.19619700        2.18785492       -2.43253653
 C           -0.70839624       -0.15826959       -3.14770800
 C           -0.46084490        1.26692489       -3.27891078
