54
Modified xyz file
 C            1.44383948        0.06454797        3.82760674
 C            0.65915495       -1.14098566        3.62683539
 C            1.47523004       -2.07227690        2.88491350
 C            2.62460377       -0.03286012        2.98499402
 C            2.67954517       -1.37378604        2.45722861
 C            2.59036233        1.06933833        2.04646338
 C            0.65433793        1.18820725        3.35463173
 C            1.42476299        1.88729945        2.35093397
 C           -0.62235048       -0.75330737        3.06543366
 C           -0.65014992        0.69574038        2.97418844
 C           -1.17437945       -1.48404386        2.01232073
 C            0.89643491       -2.69948965        1.71578171
 C           -0.45932518       -2.55610717        1.44487226
 C            2.79909703       -1.54315225        1.02181379
 C            1.83262315       -2.55092233        0.61454147
 C            2.91970295        0.86715425        0.70563671
 C            3.00857134       -0.44429375        0.19088034
 C            2.64856042        1.93468585       -0.14960599
 C            0.75017997        2.48157231        1.28827715
 C            1.49815072        2.77263614        0.14766197
 C           -1.26974201        1.25923615        1.86692969
 C           -0.63512674        2.29886150        1.16870910
 C           -2.20341727       -0.88221110        1.27913352
 C           -2.26421072        0.51865241        1.23005952
 C           -2.90862864       -1.65664918        0.35998344
 C           -0.88293753       -3.07177051        0.22669799
 C           -2.22287059       -2.77636954       -0.23956473
 C            1.33416269       -2.53328407       -0.69131935
 C            0.02131404       -2.96299996       -0.91035394
 C            2.87673114       -0.67587108       -1.17747865
 C            1.93179708       -1.68621754       -1.62947338
 C            2.72378251        1.76717542       -1.58551601
 C            2.82300709        0.42899515       -2.11284702
 C            0.83217266        3.08529384       -1.10742737
 C            1.54557225        2.38912518       -2.16723131
 C           -1.29240519        2.87742066        0.08360234
 C           -0.55365316        3.09619645       -1.14782022
 C           -3.09770610        1.17064474        0.32587735
 C           -2.60860963        2.38324526       -0.29721270
 C           -3.66209717       -1.02275907       -0.70389045
 C           -3.77623489        0.41774247       -0.70946302
 C           -2.14454868       -2.51394465       -1.66831368
 C           -0.74205951       -2.37679050       -1.99921256
 C           -3.03380680       -1.41202093       -1.95827860
 C            1.11141509       -1.07607772       -2.66753887
 C            1.68638953        0.20837432       -2.99555853
 C            0.83723766        1.37628885       -2.93436247
 C           -0.26805472       -1.21066740       -2.59167003
 C           -1.21551600        2.29833813       -2.16338605
 C           -2.58880893        2.14574910       -1.73469417
 C           -3.25249812        0.88527903       -1.98288367
 C           -2.47899939       -0.20641556       -2.54285879
 C           -0.52916208        1.21816238       -2.72014063
 C           -1.09144002       -0.07068908       -2.66790634
