54
Modified xyz file
 C            1.19208702       -0.16166874        3.89152248
 C            2.35315246       -0.48257036        3.08307863
 C            2.16541209       -1.82116803        2.54597328
 C            0.29599486       -1.30815755        3.85816191
 C            0.83381541       -2.26484034        2.90629482
 C           -1.05401367       -0.81049896        3.67491853
 C            0.41126167        1.02192695        3.57330626
 C           -0.98603367        0.64068522        3.59229934
 C            0.85322487        1.89989687        2.58898705
 C            2.71257715        0.39186436        1.97980959
 C            2.05337129        1.59994091        1.81463405
 C            2.53972762       -1.79314986        1.14412965
 C            2.96151662       -0.43973859        0.81613775
 C            1.78714804       -2.49691962        0.20848708
 C            0.01260082       -2.79360919        1.91580453
 C            0.55273785       -3.04120852        0.58507423
 C           -1.83814736       -1.28341545        2.54636751
 C           -1.35593781       -2.31098951        1.75094664
 C           -1.84243328        1.06332292        2.49991287
 C           -2.43970282       -0.12574380        1.91250022
 C           -0.10951903        2.52989150        1.69168602
 C           -1.43370421        2.08747628        1.64717443
 C            1.85296891        2.11201017        0.47227106
 C            0.59144418        2.83559505        0.45206945
 C            2.70138786        0.04467826       -0.46645333
 C            2.21205746        1.34858814       -0.63752690
 C            2.02174275       -2.21496126       -1.13371440
 C            2.53596789       -0.89827195       -1.48096641
 C            1.02110378       -2.57246682       -2.12075270
 C           -0.57561997       -3.00584189       -0.33794921
 C           -1.65275194       -2.29747837        0.32879956
 C           -0.34644954       -2.76223215       -1.68130943
 C           -2.69509254       -0.11881241        0.54312799
 C           -2.19394121       -1.15489541       -0.26421424
 C           -2.15443810        2.25608893        0.46829080
 C           -2.93139776        1.12853130       -0.02121063
 C           -0.11846699        2.91161564       -0.74151601
 C           -1.51224805        2.85497261       -0.68969657
 C            1.73125308        1.75818822       -1.88039328
 C            0.56078904        2.62313357       -1.92798080
 C            1.96590619       -0.51447411       -2.75986859
 C            1.02562254       -1.55103386       -3.15393413
 C            1.63074244        0.81201203       -2.97932748
 C           -1.16818815       -1.78017142       -2.37064976
 C           -2.05892389       -0.97992370       -1.65142489
 C           -0.35360549       -1.18360611       -3.42130719
 C           -3.03843490        1.25348787       -1.45634458
 C           -2.28408989        2.43397372       -1.84929837
 C           -2.58243553        0.15241288       -2.27186009
 C           -0.16752463        2.31918114       -3.14881006
 C            0.41847002        1.12094634       -3.72559716
 C           -0.62910485        0.11463241       -3.83158687
 C           -1.59957581        2.12376423       -3.08656016
 C           -1.87230282        0.72903047       -3.40151249
