54
Modified xyz file
 C            1.27046723        0.05408700        4.39712922
 C            0.50060952       -1.13555074        4.08557315
 C            1.35692267       -2.02111640        3.32141961
 C            2.49884066        0.00509134        3.61614514
 C            2.52630663       -1.25817590        2.91122100
 C            2.57816406        1.22693282        2.84396798
 C            0.50849040        1.20343932        3.94268644
 C            1.40883639        2.02977960        3.17191930
 C           -0.76294606       -0.71613410        3.49991166
 C           -0.70564823        0.72333583        3.29773382
 C           -1.33703296       -1.50287922        2.51220338
 C            0.80919148       -2.64916448        2.13334200
 C           -0.55870388       -2.57703808        1.90273766
 C            2.55864175       -1.26307541        1.45664350
 C            1.70802557       -2.35777994        1.02736443
 C            2.65601492        1.15521620        1.38952039
 C            2.52946108       -0.06552769        0.73370565
 C            0.91568354        2.57545279        1.92893873
 C            1.89307129        2.27927718        0.89713586
 C           -1.08890147        1.26697176        2.06414782
 C           -0.42427795        2.41029096        1.59374375
 C           -2.07584464       -0.85320028        1.44491290
 C           -1.85910901        0.49173685        1.17725960
 C           -1.02456760       -2.71965654        0.53668448
 C           -2.11783816       -1.78261806        0.33737753
 C            1.18861854       -2.31515337       -0.26000087
 C           -0.08769239       -2.84182063       -0.48341263
 C            2.02154230       -0.08465712       -0.56885792
 C            1.65829138       -1.31623955       -1.11458303
 C            1.42082239        2.26719156       -0.40863064
 C            1.57946925        1.10385147       -1.17948696
 C           -0.78210849        2.92075969        0.35549694
 C            0.28586156        3.03782134       -0.62184788
 C           -2.17089031        0.98135442       -0.09355057
 C           -1.88334767        2.31687946       -0.35655195
 C           -2.31599773       -1.30011433       -0.95090373
 C           -2.42843083        0.08550787       -1.15290063
 C           -0.58213006       -2.80703578       -1.78082615
 C           -1.83866053       -2.10517568       -1.98690112
 C            1.32425471       -1.39063709       -2.45753203
 C            0.30981601       -2.35548222       -2.82821941
 C            0.99965350        1.04260447       -2.46068684
 C            1.03944392       -0.15936981       -3.17141900
 C           -0.32616232        3.03351889       -1.92616094
 C           -1.74549309        2.77566212       -1.72366935
 C            0.14002778        2.06347602       -2.88830178
 C           -2.62348324        0.57245175       -2.45272560
 C           -2.17487976        1.90555793       -2.79142039
 C           -1.03464556        1.73851150       -3.67821921
 C           -1.85079853       -1.61945047       -3.35194559
 C           -0.50568311       -1.78218311       -3.88224110
 C            0.00904594       -0.45548675       -4.16029160
 C           -2.25043419       -0.25095760       -3.59017127
 C           -1.13986671        0.41892022       -4.25746377
