54
Modified xyz file
 C            1.26615834       -0.15897353        3.80786206
 C            2.51364668       -0.48883711        3.14781720
 C            2.28027187       -1.68619265        2.34893406
 C            0.40695461       -1.32136224        3.69383504
 C            0.91272215       -2.11700018        2.58948195
 C           -0.95388773       -0.83356135        3.62113556
 C            0.49927997        0.98137922        3.32770317
 C           -0.89786725        0.60936198        3.41335362
 C            0.95001926        1.68674061        2.21245349
 C            3.10251444        0.50391942        2.27369262
 C            2.31206593        1.66611394        1.90992475
 C            2.68922772       -1.39224274        0.98569601
 C            3.44335463       -0.16231205        1.02868540
 C            1.76819478       -1.57253536       -0.04068157
 C            0.08070694       -2.36322569        1.49776692
 C            0.62923475       -2.33318411        0.21028176
 C           -1.82038839       -1.36852443        2.59106523
 C           -1.30873161       -2.27333952        1.66200369
 C           -1.77329981        0.91819516        2.29761529
 C           -2.60586256       -0.25284692        2.09935123
 C            0.03569168        2.12092690        1.24059169
 C           -1.24953593        1.56660041        1.18212184
 C            0.49544643        2.87708862        0.16313838
 C            2.73997630        2.02486515        0.57552348
 C            3.23057808        0.79524308       -0.03385622
 C            1.91066510        2.83170498       -0.18611108
 C            1.83790178       -0.78718468       -1.20421435
 C            2.63496484        0.37492876       -1.21910902
 C            0.97573044       -1.07743914       -2.27786137
 C           -0.12809375       -2.76660098       -0.86373300
 C            0.01219896       -2.08088872       -2.13558985
 C           -2.13690241       -2.62084881        0.59839941
 C           -1.53438195       -3.04184196       -0.65248581
 C           -3.25346514       -0.40718630        0.88462784
 C           -3.23954816       -1.72760805        0.27641314
 C           -1.90397195        1.43664469       -0.04970535
 C           -2.97683168        0.54937402       -0.17544741
 C           -0.26792172        2.87724445       -1.07509803
 C           -1.36455762        2.02467840       -1.19653321
 C            1.98858552        2.68145439       -1.62698653
 C            2.36616843        1.37834984       -2.14335048
 C            0.68305978        2.99167990       -2.16939163
 C            0.82338660       -0.16658696       -3.32440803
 C            1.51524927        1.10131373       -3.27578559
 C            0.50972573        2.15665070       -3.34042774
 C           -1.74080724        1.54657611       -2.45637907
 C           -0.51290957        0.11601614       -3.81499609
 C           -0.77276064        1.51689008       -3.53684014
 C           -1.32617170       -1.86861978       -2.67587906
 C           -2.28038722       -2.43431812       -1.74192333
 C           -3.27758793       -1.55469598       -1.16444343
 C           -3.19354185       -0.13012307       -1.44255120
 C           -1.61728851       -0.64504408       -3.26410413
 C           -2.47697870        0.29918384       -2.55158209
