54
Modified xyz file
 C            1.51714830        0.00984053        3.88990904
 C            0.69359134       -1.16814107        3.67930664
 C            1.32120664       -1.97136128        2.64360460
 C            2.59673372       -0.02982331        2.92002866
 C            2.59476533       -1.34117832        2.30999907
 C            2.47429061        1.12728384        2.05296770
 C            0.70021700        1.17274333        3.59636721
 C            1.29607300        1.87428307        2.47281979
 C           -0.67354950       -0.72584091        3.48601838
 C           -0.67508738        0.73249686        3.48214138
 C           -1.46802978       -1.41304000        2.57726109
 C            0.53449189       -2.52263872        1.62723927
 C           -0.85222970       -2.36150689        1.65591069
 C            1.14374633       -2.91834769        0.43759965
 C            3.06941002       -1.45162145        1.01325488
 C            2.50338636       -2.48560580        0.17264974
 C            2.73209325        0.98328205        0.69000749
 C            3.18741501       -0.24400898        0.19879838
 C            2.16796009        1.90318929       -0.18896201
 C            0.46642818        2.42661490        1.49907334
 C            0.99956846        2.66068958        0.23576762
 C           -1.50422041        1.41051746        2.59884779
 C           -0.91944175        2.35857282        1.65713576
 C           -2.50869085       -0.70329378        1.85131471
 C           -2.54851829        0.68575743        1.89490681
 C           -1.59428398       -2.30883237        0.40396587
 C           -2.70597233       -1.38971057        0.58357544
 C            0.40292845       -2.83185811       -0.81453843
 C           -0.90165262       -2.33862214       -0.80505206
 C            2.56551524       -2.02427956       -1.20034013
 C            2.92330550       -0.61656081       -1.18542964
 C            1.33121899       -2.41228970       -1.85439549
 C            1.99075325        1.55959822       -1.59177836
 C            2.22648447        0.25371867       -2.01982648
 C            0.12133194        2.81326102       -0.91443057
 C            0.83232464        2.29913190       -2.07664196
 C           -1.79061151        2.40978210        0.49129079
 C           -2.85253175        1.43019017        0.68515454
 C           -1.24888661        2.59650701       -0.77932834
 C           -3.18162425       -0.68596505       -0.51354723
 C           -3.35830863        0.75760930       -0.41907197
 C           -1.39483835       -1.63775115       -1.91301037
 C           -2.61826427       -0.96834027       -1.82141790
 C            0.86130710       -1.60559964       -2.87598317
 C            1.45645657       -0.28757899       -3.05099843
 C           -0.56921681       -1.43076954       -3.02054854
 C            0.11442136        1.82278370       -3.16425407
 C            0.47279709        0.53785887       -3.73279020
 C           -0.74482656       -0.24990839       -3.85020796
 C           -2.00545274        2.24603765       -1.89701860
 C           -3.10762215        1.31386328       -1.73629694
 C           -2.87138007        0.20414749       -2.64277100
 C           -1.33525768        1.90597412       -3.14141268
 C           -1.86687216        0.62873983       -3.59686379
