54
Modified xyz file
 C            1.33333700        0.08395701        3.85633776
 C            2.49856099        0.05537841        2.99128687
 C            2.48067596       -1.20818544        2.27207309
 C            0.51140235       -1.07045145        3.52784316
 C            1.19600284       -1.83439407        2.49678530
 C           -0.83609614       -0.60076002        3.25783316
 C            0.47924751        1.25630190        3.85334165
 C           -0.87075780        0.82672643        3.52300968
 C            0.81134341        2.37128013        2.98536357
 C            2.70463497        1.11733042        2.01574429
 C            1.88771692        2.23864309        2.01287645
 C            2.87735158       -0.94659624        0.90527091
 C            3.04879051        0.49160111        0.75294141
 C            2.25785382       -1.64463302       -0.12645705
 C            0.46551771       -2.26199923        1.39224253
 C            1.10224761       -2.39027137        0.14998843
 C           -1.48595557       -1.07707895        2.12592133
 C           -0.92480299       -2.15000680        1.43738778
 C           -2.33361499       -0.21637382        1.43250389
 C           -1.38557450        1.70910378        2.48775504
 C           -0.39512011        2.73917942        2.26197676
 C           -2.01391882        1.14119448        1.38359088
 C            1.40068357        2.75379593        0.74715621
 C           -0.02119374        3.03195973        0.89509324
 C            2.67486611        1.07607845       -0.45775155
 C            1.84535429        2.21466595       -0.46065957
 C            2.47104969       -1.16582704       -1.41729794
 C            2.74070957        0.25315722       -1.58411632
 C            1.61609872       -1.59318152       -2.51247412
 C            0.39983296       -2.97437496       -0.90322462
 C            0.55285438       -2.44003391       -2.24536760
 C           -1.68475016       -2.77039266        0.45325051
 C           -1.00939065       -3.28399283       -0.72277121
 C           -3.15463673       -0.75288167        0.44809639
 C           -2.90637383       -2.11734414        0.01222247
 C           -3.43357406        0.04344852       -0.73129992
 C           -1.93770837        1.78237194        0.13933117
 C           -0.87300528        2.65279357       -0.13743989
 C           -2.70642185        1.28929635       -0.91413547
 C            1.08498070        2.52582602       -1.58992546
 C           -0.34875349        2.70465081       -1.42718613
 C            2.15877358        0.67345282       -2.84146316
 C            1.39171990       -0.44348923       -3.37166670
 C            1.30972113        1.83887413       -2.84444267
 C           -2.14759680        1.26665009       -2.25484489
 C           -1.01493687        2.01821336       -2.52170299
 C            0.02935817        0.01217586       -3.59094884
 C            0.01271523        1.44935056       -3.37650238
 C           -0.77474290       -2.07521719       -2.71637184
 C           -1.72648583       -2.80352071       -1.89489721
 C           -2.92995924       -2.13826554       -1.44141137
 C           -3.19316416       -0.79033482       -1.90005546
 C           -1.02870625       -0.75742918       -3.11141396
 C           -2.20616005       -0.11042168       -2.72139561
