54
Modified xyz file
 C            1.49879388        0.08263908        3.98264592
 C            0.68425259       -1.08230090        3.68976831
 C            1.51481885       -2.00556810        2.95509111
 C            2.64475216        0.04520800        3.08771713
 C            2.70164252       -1.27850249        2.51667314
 C            2.53501453        1.18163650        2.19394699
 C            0.72242932        1.26019093        3.64108033
 C            1.53821370        2.07601576        2.76718375
 C           -0.54539765       -0.62403179        3.07218040
 C           -0.57083148        0.82665248        3.14351078
 C           -1.00904664       -1.23326602        1.90972077
 C            0.96128300       -2.64133193        1.77550320
 C           -0.33380104       -2.33429041        1.35328825
 C            2.75796950       -1.41166463        1.07428652
 C            2.01549619       -2.62055822        0.78482486
 C            2.56989359        0.99843250        0.80520231
 C            2.55113077       -0.29462696        0.25794238
 C            2.22338391        2.08236421        0.00278498
 C            0.88157254        2.94381355        1.91199451
 C            1.46969203        3.16808100        0.60672609
 C           -1.13807036        1.53456411        2.08549423
 C           -0.54599287        2.74060390        1.69354413
 C           -1.93919137       -0.54111335        1.13793287
 C           -1.96872075        0.85877984        1.18605941
 C           -2.59707496       -1.22712546        0.12422123
 C           -0.71879999       -2.79227246        0.08769534
 C           -1.97242494       -2.42455123       -0.40487295
 C            1.65343007       -2.85364996       -0.52553401
 C            0.27996674       -3.23845815       -0.78801971
 C            2.08656318       -0.50469780       -1.04951373
 C            1.94498926       -1.81807241       -1.49863351
 C            1.67388027        1.84988047       -1.32218012
 C            1.49128706        0.54390466       -1.76322071
 C            0.39645326        3.52878954       -0.29902570
 C           -0.86480716        3.31237711        0.39500425
 C            0.63187581        2.84040315       -1.55590761
 C           -2.57151541        1.58017100        0.15635627
 C           -1.93364888        2.79559366       -0.32321487
 C           -3.19454173       -0.49902038       -0.98294408
 C           -3.12273062        0.88616322       -0.99652958
 C           -2.25349409       -2.47891741       -1.83195688
 C           -2.89833691       -1.23162983       -2.20606472
 C            0.12260687       -3.09018739       -2.22393350
 C            1.10212024       -2.09633420       -2.64519933
 C           -1.16474458       -2.70406516       -2.75846033
 C            0.54448192        0.28531592       -2.76569360
 C           -2.08753601       -0.59596848       -3.23630278
 C            0.37699219       -1.00564645       -3.25547495
 C           -0.97123312       -1.48096546       -3.52041943
 C           -0.46582971        2.49061581       -2.32793936
 C           -1.79587406        2.66638206       -1.76400515
 C           -2.61423101        1.54467198       -2.18830377
 C           -0.45825747        1.21841598       -3.02687967
 C           -1.83885314        0.76715060       -3.13814938
