54
Modified xyz file
 C            1.20764085        0.12028479        4.27989627
 C            0.43885814       -1.05838098        3.91724916
 C            1.33483807       -1.97642986        3.25636287
 C            2.49776968        0.02953628        3.61373158
 C            2.57309316       -1.26580868        2.97125242
 C            2.65904457        1.21617936        2.80001539
 C            0.51692565        1.28117227        3.74628676
 C            1.46525689        2.03427598        2.96070739
 C           -0.74546073       -0.62367787        3.19771262
 C           -0.69463809        0.82264935        3.09546314
 C           -1.18230402       -1.33733953        2.07920627
 C            0.88744872       -2.57947778        2.01938311
 C           -0.43461585       -2.43663450        1.61555488
 C            2.79859364       -1.34098948        1.53474896
 C            1.92290180       -2.38138485        1.02077391
 C            2.89654454        1.07705265        1.37137111
 C            2.99276712       -0.18502245        0.77813784
 C            1.05953054        2.47167052        1.63902085
 C            2.10808892        2.10743291        0.71348673
 C           -1.09383015        1.39387149        1.89103068
 C           -0.25265327        2.29620678        1.21646324
 C           -2.06554931       -0.68974454        1.20356654
 C           -2.05872444        0.71073465        1.15198322
 C           -2.65854711       -1.42543024        0.18000552
 C           -0.73184436       -2.96280441        0.36544215
 C           -1.99905152       -2.63588745       -0.25018984
 C            1.54594035       -2.35840048       -0.32213456
 C            0.29915706       -2.88692155       -0.66219516
 C            2.82812150       -0.27192374       -0.60005585
 C            2.14758284       -1.42898967       -1.16918281
 C            1.75884491        1.93388850       -0.61994987
 C            2.36564682        0.89864262       -1.32583338
 C           -0.52408760        2.56239373       -0.12551194
 C            0.51776113        2.40744438       -1.05921417
 C           -2.62937836        1.37760565        0.07232771
 C           -1.84891371        2.43485772       -0.53231152
 C           -3.14927452       -0.75335347       -1.01113553
 C           -3.26087688        0.63037661       -1.00062070
 C           -1.77988476       -2.53504984       -1.68182024
 C           -0.34567719       -2.50182998       -1.90879729
 C           -2.58196904       -1.43338048       -2.17395662
 C            1.46387547       -0.98683906       -2.37916118
 C            1.76263349        0.42991495       -2.56057427
 C            0.19240636       -1.47672208       -2.68282890
 C            0.23622977        2.32313225       -2.42478110
 C            0.83055275        1.23915609       -3.19139794
 C           -2.19441207        2.50596207       -1.93645416
 C           -3.06548415        1.37806214       -2.23342585
 C           -1.12119195        2.51109001       -2.90291550
 C           -2.08153391       -0.68377361       -3.23091255
 C           -0.65133596       -0.73319194       -3.51321709
 C           -0.23824674        0.59594177       -3.92640707
 C           -2.52109692        0.69041401       -3.38770233
 C           -1.39747213        1.46943898       -3.87849289
