54
Modified xyz file
 C            1.43265622       -0.07900161        3.79364630
 C            0.62513196       -1.25213912        3.52296867
 C            1.17291364       -1.92642708        2.35821194
 C            2.51810780       -0.06322051        2.83284257
 C            2.34710985       -1.18894936        1.93013464
 C            2.56516921        1.26422462        2.25800285
 C            0.60504536        1.08826904        3.53445045
 C            1.27268789        1.88556675        2.52945793
 C           -0.75554903       -0.82141140        3.46863021
 C           -0.73700346        0.62332810        3.26212095
 C           -1.63199778       -1.57944191        2.70800709
 C            0.29058517       -2.40463975        1.39470769
 C           -1.07298958       -2.47822417        1.70515419
 C            0.69698510       -2.45996235        0.05843977
 C            2.55346066       -0.98339372        0.56973964
 C            1.83529838       -1.74501295       -0.35655491
 C            3.09667574        1.39048036        0.98408459
 C            3.18411495        0.19552505        0.15315437
 C            2.58867202        2.45545674        0.14179036
 C            0.53462341        2.40679458        1.46675563
 C            1.24039601        2.93332683        0.38528675
 C           -1.44458741        1.16369717        2.18830984
 C           -0.82168697        2.07104994        1.31405606
 C           -2.75273484       -0.89930082        2.08909361
 C           -2.61227849        0.51357615        1.78985020
 C           -2.05551171       -2.61018397        0.63902002
 C           -3.06377753       -1.58744479        0.84747746
 C           -0.18932851       -2.99573778       -0.87739553
 C           -1.61294305       -2.84745717       -0.65237779
 C            0.02583010       -2.79303900       -2.29596523
 C            2.10345773       -1.55572093       -1.71325855
 C            1.19299449       -2.05999088       -2.72146918
 C            3.08774227        0.62010981       -1.23602442
 C            2.65813566        2.00628429       -1.23853907
 C            2.52945119       -0.24576655       -2.16253973
 C            0.59417710        3.07294246       -0.90594633
 C            1.39999808        2.34675141       -1.88070620
 C           -1.51917685        2.53044608        0.19228697
 C           -0.78557127        2.99424473       -0.97484648
 C           -3.14354814        0.72539684        0.45671448
 C           -3.26099348       -0.58066200       -0.18145444
 C           -2.68477104        1.80140904       -0.28245491
 C           -2.11612643       -2.01670443       -1.73765943
 C           -1.14965781       -2.11150268       -2.82012183
 C           -2.71183422       -0.78790838       -1.44737842
 C            0.74602279       -0.92089675       -3.51121306
 C            1.48386284        0.24431863       -3.05008619
 C            0.79619701        1.41537489       -2.72631229
 C           -0.70479689       -0.89871816       -3.48155851
 C           -1.38476532        2.38719180       -2.14827829
 C           -2.56029191        1.64888675       -1.71972048
 C           -2.47581101        0.30914616       -2.27662382
 C           -0.57493791        1.50301711       -2.96962057
 C           -1.35483198        0.29604289       -3.20628956
