54
Modified xyz file
 C            1.44000049        0.01277637        3.70903553
 C            0.62826508       -1.18390738        3.59009072
 C            1.16332424       -1.98503074        2.50626033
 C            2.44702619       -0.02753558        2.66216729
 C            2.28734136       -1.25697179        1.92903118
 C            2.35946311        1.20378425        1.92386258
 C            0.57856732        1.15401809        3.44720750
 C            1.18190117        1.92117022        2.38925820
 C           -0.75436544       -0.76954467        3.51412964
 C           -0.76257908        0.66402805        3.24376925
 C           -1.63405689       -1.57446324        2.80935722
 C            0.28493365       -2.65127825        1.64905371
 C           -1.09890727       -2.52500716        1.83564192
 C            0.76227345       -3.02589478        0.39351042
 C            2.42786325       -1.25039198        0.54521229
 C            1.96839190       -2.38644402       -0.10617205
 C            2.59534849        1.19532445        0.55421569
 C            2.51119180       -0.02484226       -0.15621908
 C            2.26406045        2.37940510       -0.09288183
 C            0.37405162        2.51054589        1.42460921
 C            1.06796972        3.07367868        0.36015640
 C           -1.51900692        1.14967060        2.17505493
 C           -0.92795331        2.00073930        1.21130219
 C           -2.79110512       -0.93954086        2.20862072
 C           -2.70426842        0.47384389        1.88586376
 C           -1.97752622       -2.50518031        0.67229553
 C           -3.10456916       -1.65020179        0.98176934
 C           -0.16105152       -3.10009929       -0.72499927
 C           -1.40973703       -2.49666576       -0.60077978
 C            1.92170183       -2.41804305       -1.54654288
 C            0.61906781       -2.94235022       -1.93476895
 C            2.42864979       -0.01442782       -1.56884722
 C            2.13374380       -1.18582980       -2.26601427
 C            2.29722039        2.43497128       -1.53079337
 C            2.24695004        1.18846606       -2.25457288
 C            0.34266172        3.50906726       -0.80315213
 C            1.17704027        3.25329324       -1.96507427
 C           -1.60777164        2.27377989        0.00126396
 C           -0.95191735        2.92353412       -1.03913178
 C           -3.33868275        0.64964943        0.60228899
 C           -3.51238832       -0.66850927        0.00667634
 C           -2.68837982        1.48781838       -0.37363947
 C           -1.87248992       -1.59954073       -1.58649761
 C           -2.84607957       -0.65280118       -1.27894539
 C           -2.59581556        0.73761395       -1.61538136
 C            0.09962684       -2.09995357       -2.98424692
 C            1.13074045       -1.13257768       -3.31505809
 C           -1.12482628       -1.36653894       -2.73970376
 C            1.17216421        1.29095548       -3.23570267
 C            0.39997543        2.46714506       -2.90488911
 C           -0.92599584        2.28121631       -2.34811576
 C           -1.56753048        1.05058742       -2.50377548
 C            0.48342901        0.13848165       -3.57612462
 C           -0.91794095        0.00800764       -3.17967483
