54
Modified xyz file
 C            1.55022482       -0.18932179        4.08880299
 C            0.68879859       -1.35345329        4.19685773
 C            1.07626398       -2.29138302        3.15843337
 C            2.46118990       -0.41250107        2.98083766
 C            2.17863488       -1.71273240        2.40694429
 C            2.38405733        0.73866026        2.10620839
 C            0.71895569        0.95187549        3.74417362
 C            1.26058107        1.55483022        2.53541053
 C           -0.66989227       -0.92822509        3.91121339
 C           -0.66419410        0.51548550        3.74083194
 C           -0.12260648       -2.67363848        2.43499309
 C           -1.18273642       -1.75666180        2.82814753
 C            0.00882676       -3.00152426        1.09547429
 C            2.16848481       -1.82525821        1.01843697
 C            1.26958837       -2.71511370        0.42850678
 C            2.54244721        0.54093190        0.74563108
 C            2.66033104       -0.76397100        0.25298579
 C            2.03731436        1.51886806       -0.09870735
 C            0.38082490        2.04342985        1.56467521
 C            0.81220681        2.10892779        0.23346616
 C           -1.51453704        1.05980184        2.79235372
 C           -0.98579960        2.01830015        1.83130046
 C           -1.97463901       -1.15997287        1.84631426
 C           -2.36860026        0.16581393        2.03259140
 C           -1.04893946       -2.63402444        0.17208287
 C           -2.02863212       -1.72260116        0.56362167
 C            0.99024035       -2.61336012       -0.99568408
 C           -0.45226382       -2.51066465       -1.15169174
 C            2.75871674       -0.93691186       -1.12703725
 C            1.80914035       -1.82354103       -1.78324257
 C            2.47823464        1.51510621       -1.41352910
 C            2.89734656        0.24347588       -1.96690889
 C            1.70468982        2.20407027       -2.42489855
 C           -0.09305931        2.45956288       -0.78046087
 C            0.38755227        2.69427984       -2.07072079
 C           -1.92555622        2.05049314        0.72554288
 C           -2.84793939        0.93275085        0.90281680
 C           -1.47358805        2.35172351       -0.55539922
 C           -2.77937327       -1.09994946       -0.43473843
 C           -3.28115527        0.24880265       -0.21888708
 C           -1.00116544       -1.59941586       -2.05305479
 C           -2.30591252       -1.16889192       -1.80993667
 C            1.21946116       -1.08868913       -2.88699967
 C            2.11566426        0.01996149       -3.16867966
 C            1.54935176        1.29660136       -3.55550825
 C           -0.16296241       -0.88615686       -2.92837721
 C           -0.46294106        2.42484908       -3.21382829
 C            0.15586286        1.33367119       -3.94661005
 C           -0.66893566        0.16143379       -3.70718926
 C           -2.33633577        2.07298693       -1.61765033
 C           -3.23542171        0.94257759       -1.49251420
 C           -2.84244096       -0.01936357       -2.50697944
 C           -1.83649679        2.04292490       -2.97572579
 C           -1.99886689        0.67513051       -3.45369533
