54
Modified xyz file
 C            1.59324848       -0.23600523        4.44817929
 C            0.69705845       -1.35629395        4.67746118
 C            1.12000965       -2.44507179        3.81443096
 C            2.48682843       -0.59448496        3.35889456
 C            2.20950620       -1.96049201        2.98282621
 C            2.36805165        0.42528750        2.33469555
 C            0.79023422        0.88985119        4.00091472
 C            1.37093476        1.38753699        2.76569548
 C           -0.63288290       -0.94914527        4.25634099
 C           -0.60116472        0.47946562        3.98885433
 C            0.01346690       -2.76796731        2.92969072
 C           -1.06979806       -1.84492843        3.19445724
 C            1.85428402       -2.22039801        1.60142283
 C            0.53284124       -2.81858538        1.57948330
 C            2.36436327        0.06230942        0.99092003
 C            2.13196459       -1.26831461        0.62290993
 C            1.97478035        1.04005903        0.08148742
 C            0.52960806        1.92132689        1.79183333
 C            0.98363025        1.94720173        0.47369919
 C           -1.40989778        0.96603258        2.97253799
 C           -0.84823017        1.89990234        2.00656016
 C           -1.74337529       -1.30252806        2.10333988
 C           -2.18463552        0.01734945        2.19409125
 C           -0.30285996       -2.44464820        0.53398617
 C           -1.53710575       -1.85723353        0.83299458
 C            1.55489810       -1.47574063       -0.62726809
 C            0.30615508       -2.10635255       -0.67310550
 C            2.08710442        0.74761795       -1.27525309
 C            1.87660715       -0.58568632       -1.64667657
 C            1.76534673        1.77371279       -2.16104121
 C            0.14164130        2.46460626       -0.50902279
 C            0.69208488        2.66745400       -1.76884680
 C           -1.73937871        1.88419845        0.85274144
 C           -2.59432156        0.71198627        0.98755300
 C           -1.22811694        2.19845424       -0.40542141
 C           -2.30963529       -1.38456941       -0.22668739
 C           -2.86189014       -0.03870630       -0.14393616
 C           -0.49980008       -1.92497101       -1.79643685
 C           -1.83268743       -1.56909101       -1.59203886
 C            1.39391303       -0.88951097       -2.91640080
 C            0.11510410       -1.57088641       -2.99548945
 C            1.62103019        1.48784009       -3.57505901
 C            1.44113920        0.10983112       -3.96623943
 C           -0.20199288        2.79123885       -2.90052277
 C            0.48122404        2.24752057       -4.06200212
 C           -1.92858343        1.75560577       -1.53557721
 C           -2.67711312        0.58256822       -1.44238015
 C           -2.41773514       -0.49373175       -2.38073920
 C           -1.50167020        2.16223297       -2.79684640
 C           -0.67124156       -0.90450284       -4.01934034
 C            0.20557651        0.01408260       -4.72633545
 C           -0.42528441        1.32279200       -4.71948443
 C           -1.85680425       -0.17616654       -3.60883924
 C           -1.62642996        1.22794757       -3.90701101
