54
Modified xyz file
 C            1.51065232        0.07497665        3.81266769
 C            0.71802783       -1.12660528        3.62815830
 C            1.53148433       -2.06887946        2.89585525
 C            2.65953506       -0.01671895        2.92487361
 C            2.69994064       -1.35798106        2.39492660
 C            2.58263951        1.08782016        1.99189759
 C            0.70749907        1.20368843        3.37793598
 C            1.47442532        1.93946186        2.39850184
 C           -0.56311271       -0.73953652        3.06144905
 C           -0.59088805        0.71168649        2.97453992
 C           -1.10561060       -1.47675532        2.00743091
 C            0.92760371       -2.75037767        1.77211124
 C           -0.43553467       -2.62091732        1.53585277
 C            2.73387792       -1.53405369        0.95449297
 C            1.82140037       -2.62014943        0.63617781
 C            2.78940233        0.87879233        0.62521394
 C            2.78766774       -0.42960282        0.10520409
 C            2.49662231        1.95717129       -0.21188513
 C            0.79277609        2.61690916        1.39623867
 C            1.53790666        2.93769984        0.26670768
 C           -1.19021536        1.29127343        1.86343176
 C           -0.58873695        2.40558886        1.25808012
 C           -2.06969287       -0.85670150        1.20285591
 C           -2.12453529        0.54038310        1.14909942
 C           -2.76189718       -1.61244825        0.25802394
 C           -0.89894484       -3.23724007        0.38056173
 C           -2.21515381       -2.89862825       -0.11482642
 C            1.26535582       -2.70045786       -0.64066390
 C            0.00669780       -3.29491617       -0.76036367
 C            2.50597988       -0.64947341       -1.24134428
 C            1.69976707       -1.80328500       -1.62281747
 C            2.23283836        1.74842495       -1.62559921
 C            2.13549966        0.45524729       -2.10592992
 C            0.88556877        3.52829164       -0.88197404
 C            1.23716050        2.72393014       -2.04203047
 C           -1.28654936        3.08526014        0.25832185
 C           -0.55532684        3.66350760       -0.85651294
 C           -2.87822791        1.16025937        0.15774172
 C           -2.48653802        2.48408224       -0.29518170
 C           -3.24638107       -0.97586739       -0.95821129
 C           -3.23429942        0.40647248       -1.02893689
 C           -2.17190250       -2.96698921       -1.56558611
 C           -0.77884071       -3.07577322       -1.96035323
 C           -2.67781513       -1.70716349       -2.07555075
 C            0.80076674       -1.37625300       -2.69224360
 C            0.94259007        0.05890878       -2.83901019
 C           -0.45780067       -1.94070287       -2.80121857
 C           -1.62225689       -1.06836176       -2.84618195
 C           -0.00209724        2.25308158       -2.63852769
 C           -1.06847111        3.05721356       -2.07364597
 C           -2.31720612        2.41292848       -1.74154385
 C           -2.50423773        1.02733934       -2.11958940
 C           -0.18495920        0.88109496       -2.82125902
 C           -1.46645366        0.31434480       -2.72736470
