54
Modified xyz file
 C            1.20340684       -0.11716651        3.48488483
 C            2.42868720       -0.38050865        2.77138947
 C            2.39412793       -1.75916855        2.31135403
 C            0.37626808       -1.31316175        3.42012847
 C            1.10219680       -2.32213511        2.67483623
 C           -0.94632906       -0.91655951        2.96806623
 C            0.39027830        1.00365344        3.06002835
 C           -0.98124635        0.53759743        2.93508495
 C            0.87140294        1.91624699        2.12331236
 C            2.75395501        0.45752210        1.63627509
 C            2.05365057        1.64034039        1.40402779
 C            2.81580915       -1.77978885        0.91737853
 C            3.04440630       -0.40668864        0.50202342
 C            2.20318511       -2.65995571        0.03976842
 C            0.41768498       -3.09178254        1.74417367
 C            1.09659322       -3.47314895        0.51739441
 C           -1.58005869       -1.63418385        1.95632684
 C           -0.96085798       -2.75744973        1.40201482
 C           -2.61494803       -1.01988224        1.25659944
 C           -1.83291047        1.17879906        2.03739257
 C           -2.79906374        0.41941364        1.37780639
 C           -0.05665260        2.83056301        1.62762083
 C           -1.44991043        2.42199310        1.52235055
 C            0.25783800        3.65123817        0.47671780
 C            2.28024300        2.24758254        0.16991921
 C            1.45352967        3.35021863       -0.27229410
 C            2.67533145        0.02077748       -0.77453047
 C            2.55288243        1.39715975       -0.97870579
 C            1.87358640       -2.21054576       -1.30162368
 C            2.07096743       -0.87612328       -1.66762717
 C            0.10448496       -3.54473158       -0.53995219
 C           -1.15570399       -3.05820485       -0.01023635
 C            0.65486478       -2.89868644       -1.71234119
 C           -2.85132383       -1.38066325       -0.13313436
 C           -1.93647673       -2.20329447       -0.78383602
 C           -3.36378239        0.89741173        0.12831600
 C           -3.37987926       -0.21147544       -0.81132787
 C           -1.94759483        2.87570908        0.22798431
 C           -0.87144704        3.58413408       -0.43726548
 C           -2.74897605        2.03334234       -0.52599378
 C            1.06579059        3.08671178       -1.64885425
 C            1.78918496        1.91192753       -2.10357067
 C           -0.38571019        3.07928015       -1.70896318
 C            1.42961805       -0.39692796       -2.81028253
 C            1.14078969        1.01854793       -2.93812172
 C           -0.21884057       -2.25319891       -2.57321602
 C           -1.56198299       -1.92480773       -2.10545759
 C            0.27576250       -1.11525438       -3.32268861
 C           -2.75021901        0.22811237       -2.03954548
 C           -2.28727645        1.59706093       -1.83874046
 C           -1.03145824        1.99891326       -2.30897365
 C           -0.29566209        1.15325975       -3.14031841
 C           -1.95549351       -0.66924575       -2.73652443
 C           -0.81272180       -0.16277627       -3.46904958
