54
Modified xyz file
 C            1.52297345        0.06234496        4.07316459
 C            0.72839514       -1.14058090        3.90878871
 C            1.59095254       -2.12455515        3.29330810
 C            2.64703924       -0.03611512        3.15531215
 C            2.72096859       -1.40809282        2.71156394
 C            2.48790256        1.00829768        2.16117695
 C            0.71284367        1.18511849        3.64184747
 C            1.48457643        1.92894388        2.66708673
 C           -0.51038530       -0.77047193        3.23619306
 C           -0.58477579        0.67971109        3.22853141
 C           -0.93444276       -1.47542463        2.10597481
 C            1.03286255       -2.96004037        2.25292354
 C           -0.29830429       -2.66349248        1.74810540
 C            2.71412594       -1.67972385        1.28740286
 C            1.93209350       -2.87977838        1.11470393
 C            2.48190021        0.69514292        0.79917419
 C            2.52548643       -0.64392829        0.37085393
 C            2.06297794        1.68278812       -0.09524003
 C            0.77802989        2.68197560        1.74450379
 C            1.24956931        2.71765416        0.37257921
 C           -1.21245356        1.30262347        2.15794476
 C           -0.66113794        2.48626707        1.66208746
 C           -1.73688660       -0.82948397        1.15930886
 C           -2.01423628        0.53729776        1.31470632
 C           -2.05425025       -1.48570901       -0.04230473
 C           -0.27550646       -3.04289143        0.35171113
 C            1.11530770       -2.97588802       -0.07388856
 C           -1.22444912       -2.51249782       -0.51167084
 C            2.11101729       -0.96638444       -0.92998940
 C            1.40778577       -2.16076840       -1.16246724
 C            2.10719435        1.41946076       -1.45991024
 C            2.12072549        0.03620850       -1.89738060
 C            1.23775266        2.16563323       -2.35593889
 C            0.12678510        3.17575845       -0.43387436
 C           -1.08135050        2.97713000        0.35746908
 C            0.11885174        2.90079212       -1.79499983
 C           -2.75978916        1.20695843        0.35127983
 C           -2.20676093        2.41700299       -0.23256184
 C           -2.99931560       -0.92416926       -0.90448998
 C           -3.39601839        0.45369175       -0.70740431
 C           -2.86988855       -1.12251049       -2.33924403
 C           -0.88424202       -2.53004474       -1.86114473
 C            0.49056775       -2.21977508       -2.20805052
 C           -1.74926254       -1.89403643       -2.83017699
 C            1.27072685       -0.07056359       -3.07339478
 C            0.72082403        1.24552093       -3.35297085
 C            0.46342000       -1.18644292       -3.22514991
 C           -0.92179102       -1.02143516       -3.64973816
 C           -1.09959497        2.41843115       -2.43045590
 C           -2.26115600        2.26587793       -1.67633167
 C           -3.16952301        1.16771092       -1.95665356
 C           -2.80966108        0.18948588       -2.96399945
 C           -0.72198007        1.41589062       -3.42070416
 C           -1.52649394        0.30108579       -3.63756665
