54
Modified xyz file
 C            1.50403281       -0.25284033        4.05631784
 C            0.63459347       -1.41367792        4.07033931
 C            1.15304886       -2.35674955        3.09967667
 C            2.49400557       -0.44707654        3.00819353
 C            2.22092924       -1.70530195        2.35648487
 C            2.50277302        0.74306563        2.19705716
 C            0.69942182        0.89315058        3.67563580
 C            1.44571292        1.62531306        2.67412453
 C           -0.67528404       -0.99786285        3.59650663
 C           -0.61728385        0.42018706        3.30478859
 C            0.02099793       -2.85880227        2.34695046
 C           -1.06268750       -1.90208572        2.53030925
 C            0.27133558       -3.30322861        1.06007369
 C            2.17825835       -1.76676873        0.96240704
 C            1.49752658       -2.85340188        0.41598538
 C            2.66752749        0.62952377        0.82167095
 C            2.36182606       -0.59673725        0.18930770
 C            2.49780689        1.81596290        0.11893215
 C            0.73808889        2.33693097        1.70983476
 C            1.46639103        2.72484215        0.58985526
 C           -1.14240120        0.87690084        2.10262813
 C           -0.62424356        2.04999419        1.55013746
 C           -1.68875982       -1.38153001        1.39835251
 C           -1.87142186        0.00512551        1.28508013
 C           -0.77461972       -3.15796848        0.06743731
 C           -1.74641986       -2.17492683        0.25110850
 C            1.28133923       -2.92032863       -1.00992466
 C           -0.11754332       -3.25832837       -1.22080222
 C            2.15907997       -0.63951464       -1.21039901
 C            1.57130652       -1.75191734       -1.80270031
 C            2.44823260        1.78958938       -1.31984131
 C            2.16289446        0.53167062       -1.96202031
 C            0.77805879        3.26456538       -0.56712654
 C            1.45002005        2.75467618       -1.75177926
 C           -1.33087255        2.64457467        0.51079171
 C           -0.60762871        3.33053035       -0.55021064
 C           -2.51867918        0.52386743        0.16012523
 C           -2.40657804        1.89079196       -0.11067106
 C           -2.44452810       -1.70444826       -0.85760558
 C           -2.97664303       -0.35511805       -0.82295634
 C           -0.61755557       -2.44249044       -2.30790101
 C            0.46162712       -1.55515571       -2.72509125
 C           -1.89684819       -1.92311979       -2.19341840
 C            1.09491455        0.75344449       -2.92946601
 C            0.66055080        2.14013158       -2.80531096
 C            0.16517536       -0.26229082       -3.16416739
 C           -1.34131585        3.12814609       -1.79023091
 C           -2.55069615        2.39064577       -1.46869067
 C           -0.69011586        2.44855639       -2.90036024
 C           -3.10188852        0.08149587       -2.20434632
 C           -2.23380675       -0.76843306       -2.99927286
 C           -1.15282895        0.06308525       -3.49677199
 C           -2.79051693        1.45365799       -2.54478810
 C           -1.60630884        1.43967795       -3.39425918
