54
Modified xyz file
 C            1.11340565       -0.06478506        3.63204725
 C            2.33680577       -0.38924344        2.93259217
 C            2.22812466       -1.76202242        2.46795615
 C            0.26660397       -1.24860705        3.60496507
 C            0.84776868       -2.17196634        2.65131427
 C           -1.09145540       -0.80534336        3.39954892
 C            0.31370418        1.04735328        3.15313669
 C           -1.06841132        0.64541132        3.28887960
 C            0.69248764        1.72951981        1.99694980
 C            2.71713881        0.42198884        1.79610143
 C            1.98304189        1.55602414        1.46692607
 C            2.79540158       -1.82985105        1.13295676
 C            3.12887522       -0.46865591        0.72265293
 C            2.20204505       -2.68242123        0.21639276
 C            0.11980157       -2.58618198        1.53279930
 C            0.83031159       -3.11604413        0.45262858
 C           -1.82210034       -1.31216389        2.25616234
 C           -1.22784752       -2.21622425        1.37688357
 C           -1.99183798        1.01729640        2.23725583
 C           -2.58502135       -0.20298819        1.70947458
 C           -0.28797790        2.40818940        1.25556115
 C           -1.63427792        2.01152684        1.33740596
 C            0.11360220        3.32338233        0.28254693
 C            2.30193500        2.15472470        0.25617524
 C            1.44400956        3.19642007       -0.26893278
 C            2.93902230       -0.05668190       -0.60268837
 C            2.69174845        1.29429585       -0.85163317
 C            2.32661152       -2.36768295       -1.19046798
 C            2.57273361       -0.98985707       -1.57506958
 C            0.18990733       -3.28505956       -0.83886873
 C            1.11552234       -2.81227940       -1.85703978
 C           -1.87925197       -2.44360941        0.16612028
 C           -1.15786423       -2.99387848       -0.96925185
 C           -2.96818268       -0.24205754        0.36786724
 C           -2.81017784       -1.43900504       -0.33416238
 C           -2.46489854        2.15809318        0.23201845
 C           -3.08017415        0.96672437       -0.33112086
 C           -0.76510205        3.62751444       -0.83150409
 C           -2.07917531        3.02455746       -0.86106177
 C            1.30294556        2.96849134       -1.69917514
 C            1.85616333        1.66017626       -1.98262993
 C           -0.07302762        3.22862296       -2.04853090
 C            1.57929286       -0.62468523       -2.57800998
 C            0.69301505       -1.76074155       -2.76819788
 C            1.07720945        0.67523923       -2.58821683
 C           -1.61569599       -2.30363307       -2.16441285
 C           -2.69619553       -1.41245312       -1.78095188
 C           -0.66159683       -1.53950253       -2.95356165
 C           -2.87542680        1.01142333       -1.77627806
 C           -2.18058761        2.24841118       -2.08561883
 C           -0.84837343        2.16585897       -2.65612208
 C           -0.28434393        0.90309314       -2.85586102
 C           -2.47803233       -0.14042879       -2.43532487
 C           -1.15219824       -0.17628490       -3.04062609
