54
Modified xyz file
 C            1.54141475        0.08696032        3.80575717
 C            0.73320403       -1.09364228        3.55764007
 C            1.37153094       -1.86864435        2.50968019
 C            2.62787407        0.09215137        2.84258398
 C            2.54835166       -1.13289248        2.06756971
 C            2.59856985        1.35901376        2.13977563
 C            0.71376678        1.24941407        3.53948387
 C            1.41233394        2.08420634        2.57921902
 C           -0.63493121       -0.66448664        3.35706754
 C           -0.62460944        0.78323998        3.21297184
 C           -1.43075355       -1.40782752        2.50232118
 C            0.57867128       -2.50494236        1.55448826
 C           -0.81342592       -2.41713127        1.64653858
 C            1.16208597       -2.84447988        0.33623263
 C            2.84274739       -1.10337028        0.70708312
 C            2.37566098       -2.15543622       -0.07503802
 C            2.95657339        1.37338197        0.79759818
 C            3.18543278        0.11224972        0.10134121
 C            2.27774611        2.27125637       -0.12392064
 C            0.65555468        2.78921332        1.65219162
 C            1.15564992        2.97529912        0.29926988
 C           -1.30329689        1.37063252        2.14444717
 C           -0.77150122        2.51958645        1.55419232
 C           -2.42499236       -0.72045682        1.70124261
 C           -2.30416075        0.65178690        1.48247436
 C           -1.63161808       -2.52673391        0.44436612
 C           -2.74787839       -1.60088878        0.59147814
 C            0.33189178       -3.02494396       -0.84502686
 C           -1.01902368       -2.69543693       -0.79598201
 C            2.35206083       -2.02853035       -1.52051995
 C            1.11695789       -2.62501534       -2.00083337
 C            2.90864459        0.34028039       -1.31247364
 C            2.29401633        1.65312479       -1.44142888
 C            2.47513877       -0.71113220       -2.11030510
 C            1.22195139        1.83655774       -2.30859449
 C            0.00408247        3.10509550       -0.58200484
 C           -1.19539171        2.91285036        0.22142360
 C            0.06034836        2.59927838       -1.87675289
 C           -2.95315383        1.22275189        0.38854253
 C           -2.31117047        2.30539382       -0.33586817
 C           -3.35670582       -1.07073113       -0.53684480
 C           -3.59635006        0.36092120       -0.59169994
 C           -1.64950602       -2.23163834       -1.95157586
 C           -2.89777868       -1.49526375       -1.84602732
 C            0.52433654       -1.71948903       -2.96725348
 C            1.35162917       -0.52140932       -3.01694159
 C            0.75510125        0.73092086       -3.13145919
 C           -0.85957299       -1.60299965       -3.00107715
 C           -1.12193076        1.99255524       -2.46861588
 C           -2.31150620        1.95132401       -1.74649000
 C           -3.22084323        0.83148038       -1.91619387
 C           -2.79331197       -0.31635617       -2.69324986
 C           -0.69128602        0.83846408       -3.25014223
 C           -1.46862863       -0.31551189       -3.29066055
