54
Modified xyz file
 C            1.61979553       -0.11502106        3.62771579
 C            0.76555790       -1.28409181        3.56709334
 C            1.30887192       -2.17929954        2.55948278
 C            2.56417136       -0.20379677        2.52629723
 C            2.30281629       -1.43062444        1.80443996
 C            2.49819650        1.04057219        1.79474316
 C            0.78535319        1.05141732        3.39610366
 C            1.41831440        1.83781382        2.36238296
 C           -0.60791537       -0.82869970        3.42625629
 C           -0.57062761        0.60217600        3.16480663
 C           -1.49106200       -1.61975723        2.70617121
 C            0.42913209       -3.00282721        1.87189640
 C           -0.99876091       -2.85305558        2.11108971
 C            0.60972366       -3.19156190        0.44279346
 C            2.21142160       -1.38504232        0.41448166
 C            1.54333157       -2.42104897       -0.25067517
 C            2.62970197        1.01989098        0.40898206
 C            2.56305986       -0.20694435       -0.26998948
 C            2.27744381        2.19039662       -0.26410449
 C            0.62003272        2.55225072        1.47757970
 C            1.26605006        3.03566536        0.34456324
 C           -1.26033152        1.11933076        2.06994204
 C           -0.75057582        2.24771931        1.40341721
 C           -2.37889669       -0.99304363        1.74132822
 C           -2.30580154        0.37580001        1.50460453
 C           -1.68902867       -3.05025806        0.84709076
 C           -0.70347140       -3.41436722       -0.14705039
 C           -2.52184247       -1.88841262        0.60177530
 C           -0.91389056       -3.01296870       -1.45737000
 C            1.50591884       -2.44651288       -1.64112103
 C            0.25181313       -2.78426898       -2.29177686
 C            2.59238011       -0.20389086       -1.66288113
 C            2.10045637       -1.35939236       -2.38783558
 C            2.03752858        2.17330706       -1.69866602
 C            2.11940438        0.96800264       -2.37630218
 C            0.50380162        3.66316918       -0.71283968
 C            0.89949337        3.04033284       -1.96583733
 C           -1.55415456        2.90480783        0.46959786
 C           -0.93950517        3.62301331       -0.63334371
 C           -2.94318241        0.84749658        0.36446582
 C           -2.69329596        2.20239813       -0.08048750
 C           -2.58201716       -1.34141514       -0.68153820
 C           -1.86590425       -1.93777099       -1.72748350
 C           -2.97930715       -0.01033624       -0.81077091
 C           -0.06522915       -1.71446947       -3.22030138
 C            1.11149251       -0.88987952       -3.35081011
 C            0.97626365        0.53811463       -3.16306936
 C           -1.29779650       -1.09709103       -2.77430731
 C           -0.29243568        2.46114575       -2.56259229
 C           -1.43067786        3.03072263       -1.86868951
 C           -2.53471670        2.16783636       -1.52721361
 C           -2.47496229        0.77616921       -1.92297327
 C           -0.27362754        1.10782051       -2.90735100
 C           -1.39251006        0.28847887       -2.65171999
