54
Modified xyz file
 C            1.49707437        0.06054870        3.97767711
 C            0.72667099       -1.16993881        3.95277350
 C            1.54948085       -2.17553281        3.31750119
 C            2.59529262       -0.09507079        3.03814439
 C            2.65894470       -1.48949456        2.66635547
 C            2.41967030        0.89102644        1.99057128
 C            0.64455336        1.12700561        3.48170052
 C            1.31757681        1.75346981        2.36650230
 C           -0.57861195       -0.86473518        3.38738000
 C           -0.67336098        0.58199987        3.24095400
 C           -1.13720615       -1.68266921        2.40041232
 C            0.93597038       -3.04111263        2.33280103
 C           -0.43210396       -2.78344866        1.90830209
 C            2.61786651       -1.83470390        1.25772558
 C            1.76702442       -2.99627924        1.14123094
 C            2.51758877        0.52097378        0.65065008
 C            2.49238499       -0.83775786        0.28995637
 C            2.11170756        1.46259020       -0.29577203
 C            0.53975420        2.26005267        1.33579239
 C            1.14047590        2.40083666        0.08689454
 C           -1.40749753        1.09226806        2.17558472
 C           -0.85269918        2.11481038        1.39512199
 C           -2.18214612       -1.16695679        1.63950170
 C           -2.38369690        0.27279361        1.61744523
 C           -2.41048215       -1.66259169        0.28909978
 C           -0.48491288       -3.08605295        0.48692905
 C            0.88546492       -3.07000721       -0.00512310
 C           -1.47398651       -2.51062609       -0.30789950
 C            2.03233295       -1.19797221       -0.98444319
 C            1.16212277       -2.29074755       -1.12298887
 C            2.27566219        1.13237860       -1.63657746
 C            2.13687316       -0.26013967       -2.00966507
 C            1.65937764        1.94115603       -2.66969193
 C            0.48703350        3.18406129       -0.86027407
 C            0.75589169        2.99782688       -2.27250009
 C           -1.61807499        2.65755809        0.36334782
 C           -0.94244270        3.37272248       -0.70862759
 C           -2.98269752        0.62502145        0.34104519
 C           -3.02803968       -0.58098570       -0.47337853
 C           -2.66176590        1.84469000       -0.24122461
 C           -2.82902269       -0.49949742       -1.84595714
 C           -1.21160811       -2.39272984       -1.67242460
 C            0.17181000       -2.25461108       -2.09892063
 C           -2.02146793       -1.51247949       -2.49362643
 C            1.23525298       -0.32028424       -3.14969831
 C            0.93866436        1.04508674       -3.55861222
 C            0.22322244       -1.26755436       -3.16021933
 C           -1.14180894       -0.85241470       -3.44524051
 C           -0.51885056        2.77469274       -2.93816347
 C           -1.57256571        3.00293718       -1.96601357
 C           -2.52247701        1.94097959       -1.68618519
 C           -2.51482712        0.78299282       -2.45937961
 C           -0.44482153        1.49244146       -3.61553699
 C           -1.46857067        0.56347352       -3.45325653
