54
Modified xyz file
 C            1.45976773       -0.00622146        3.79612346
 C            0.68096255       -1.22381681        3.67345093
 C            1.32433606       -2.08112774        2.68840204
 C            2.58280476       -0.11137446        2.88638326
 C            2.42945307       -1.33296060        2.11437359
 C            2.65993895        1.13704084        2.15454396
 C            0.63132054        1.09327104        3.32881015
 C            1.34732947        1.75953600        2.26083665
 C           -0.69993211       -0.83460413        3.45525253
 C           -0.68581083        0.56360602        3.04861760
 C           -1.52229412       -1.71422624        2.76443931
 C            0.51952614       -2.84222895        1.85309008
 C           -0.91076003       -2.86060355        2.10657939
 C            0.70367565       -2.74078988        0.41254941
 C            2.57445288       -1.24781588        0.73001859
 C            1.59269639       -1.80779541       -0.10133506
 C            3.24848169        1.09684591        0.90140931
 C            3.35310162       -0.20002319        0.24370905
 C            2.75331699        2.00373723       -0.11234642
 C            0.66946326        2.09251402        1.08854184
 C            1.42534159        2.43142160       -0.03545873
 C           -1.32813917        0.92288830        1.86798994
 C           -0.69000686        1.76567208        0.94109961
 C           -2.50660032       -1.17289412        1.84260031
 C           -2.43353684        0.17251924        1.47170035
 C           -1.58012902       -3.05248396        0.83359810
 C           -0.59405479       -2.89747730       -0.22204013
 C           -2.73622901       -2.18035694        0.81502919
 C           -0.92688093       -2.10918040       -1.32419589
 C            1.35260603       -1.27440685       -1.37156585
 C            0.05086543       -1.28077087       -1.90461070
 C            3.38940764        0.04649517       -1.18480699
 C            3.26616383        1.48332519       -1.36582486
 C            2.36873742       -0.56758939       -2.00533477
 C            2.49773844        1.70107916       -2.57094518
 C            2.02477660        0.39779933       -3.02367442
 C            0.77676749        2.87309580       -1.18422467
 C            1.34433681        2.57361143       -2.49097401
 C           -1.37455733        2.15691130       -0.21788918
 C           -0.66375299        2.71228674       -1.28749678
 C           -3.18274789        0.59910571        0.38439237
 C           -2.65726116        1.66043471       -0.45692336
 C           -3.19009644       -1.74753896       -0.41895256
 C           -2.28329863       -1.86015015       -1.55573082
 C           -3.75331796       -0.41537742       -0.48474620
 C           -3.03934330        1.36078575       -1.82588767
 C           -2.67030412       -0.84407307       -2.51010822
 C           -3.62577075        0.03509409       -1.85504315
 C           -0.30304925       -0.37853991       -2.92909681
 C            0.63422673        0.54179311       -3.39031231
 C            0.30054462        1.94970257       -3.27417552
 C           -0.96491367        2.28192593       -2.65240601
 C           -1.63800451       -0.00967359       -3.07737949
 C           -2.00134835        1.38160293       -2.83005529
