54
Modified xyz file
 C            1.24419686        0.16407070        3.88320147
 C            2.42903807       -0.03019307        3.07431054
 C            2.43244698       -1.41386558        2.63617603
 C            0.41899459       -1.02990036        3.75553696
 C            1.09820748       -1.94300460        2.85172200
 C           -0.93539262       -0.60819083        3.44913381
 C            0.40585268        1.31112480        3.61089588
 C           -0.96533581        0.84020451        3.49680100
 C            0.68139026        2.13455252        2.44365585
 C            2.62982935        0.79681237        1.89541579
 C            1.74163919        1.82917337        1.58916917
 C            2.97438693       -1.45169337        1.29277153
 C            3.10308178       -0.07356430        0.82855016
 C            2.47141476       -2.40078680        0.41908222
 C            0.40827470       -2.48800289        1.76814040
 C            1.13042167       -2.92550254        0.65702909
 C           -1.63162209       -1.25932253        2.44076278
 C           -0.96821342       -2.29135829        1.65432126
 C           -2.48643967       -0.49597463        1.53976009
 C           -1.58747929        1.56644275        2.40417159
 C           -0.60517548        2.50085581        1.87561935
 C           -2.41891102        0.89886569        1.50841375
 C           -0.68981670        2.85891078        0.53382895
 C            1.70181828        2.30450050        0.28339579
 C            0.48250735        2.91829538       -0.22330342
 C            2.80320365        0.24645652       -0.49837667
 C            2.27758132        1.50261239       -0.78745095
 C            2.59609730       -2.14697893       -0.99984445
 C            2.69866683       -0.77009276       -1.44701793
 C            0.46795844       -3.05772100       -0.63326167
 C            1.44723360       -2.74059780       -1.65637563
 C           -1.60104238       -2.32039331        0.34300764
 C           -2.57990148       -1.24307636        0.29344902
 C           -0.84472672       -2.61381695       -0.78821225
 C           -2.78802240       -0.56430651       -0.90176397
 C           -2.75523600        1.56115935        0.33195686
 C           -1.91119039        2.66271208       -0.10575679
 C           -3.10415868        0.79404934       -0.85206211
 C           -1.99252084        2.73522773       -1.55366630
 C           -2.86109096        1.65674821       -1.99796788
 C            0.44742146        2.69076885       -1.66281866
 C            1.46239584        1.69397969       -1.97897090
 C           -0.76962635        2.66919867       -2.32904130
 C            1.79766880       -0.61397148       -2.58060663
 C            1.05336519       -1.85995664       -2.73464638
 C            1.15023173        0.60407124       -2.79197797
 C           -1.27250438       -2.13919500       -2.03111854
 C           -2.33841857       -1.14902263       -2.08684316
 C           -0.29187834       -1.79089750       -3.05501509
 C           -2.28483307        1.09386595       -3.19956353
 C           -0.97432755        1.70120064       -3.39071420
 C           -0.01031660        0.62798450       -3.56639729
 C           -2.12073838       -0.34244321       -3.27683352
 C           -0.76640586       -0.60001447       -3.73067176
