54
Modified xyz file
 C            1.05904574        0.06245834        4.39436845
 C            0.29514873       -1.10995150        3.99786166
 C            1.15380751       -1.96349354        3.21413631
 C            2.34311342        0.00231668        3.71898202
 C            2.41733158       -1.26510246        3.02022742
 C            2.49633941        1.22429257        2.95648179
 C            0.35609523        1.23998774        3.90689180
 C            1.26784977        1.99825497        3.08813733
 C           -0.93178372       -0.65016712        3.38974013
 C           -0.88271844        0.79924214        3.30748656
 C           -1.46101308       -1.32363184        2.29393284
 C            0.68495791       -2.40056487        1.90861169
 C           -0.60577190       -2.09270918        1.47840673
 C            2.70209462       -1.27503123        1.59522212
 C            1.77898139       -2.21556731        0.97822664
 C            2.80231980        1.14327031        1.53844474
 C            3.01166414       -0.09224009        0.91815101
 C            0.84290386        2.37946237        1.75085650
 C            1.96586028        2.12811966        0.87231612
 C           -1.34510267        1.38847403        2.12990286
 C           -0.44122735        2.06879750        1.29197938
 C           -2.53630214       -0.68372008        1.69281180
 C           -2.44299764        0.76235613        1.55089176
 C           -3.06750186       -1.21725367        0.46138159
 C           -0.88253789       -2.22082845        0.10885733
 C           -2.18960904       -2.03461294       -0.33874733
 C            1.48938505       -2.06334465       -0.37109850
 C            0.17580878       -2.25422365       -0.81367446
 C            2.97340853       -0.12375202       -0.47286436
 C            2.34313016       -1.26039384       -1.12138158
 C            1.71536504        1.96829483       -0.47957487
 C            2.49482803        1.05210911       -1.17692205
 C           -0.66520114        2.10672783       -0.09490611
 C            0.43725541        2.24966112       -0.95817033
 C           -2.82352418        1.09027974        0.19580282
 C           -3.46793365       -0.08767061       -0.35625002
 C           -1.93537803        1.79464360       -0.60543384
 C           -2.43962949       -1.68474211       -1.72571629
 C           -3.18980255       -0.42905668       -1.73637165
 C           -0.08587140       -2.17353078       -2.18473395
 C           -1.43251723       -1.89429936       -2.65749398
 C            1.94134467       -0.83498618       -2.45107046
 C            2.06311680        0.62062640       -2.49593721
 C            0.84486290       -1.45254702       -3.03980363
 C            0.25284568        2.24731407       -2.33794427
 C            1.08787794        1.36918008       -3.14430385
 C           -2.14953813        1.76930718       -1.98418873
 C           -2.78116006        0.59583823       -2.57943321
 C           -1.08961570        2.19604831       -2.86796786
 C           -1.33186382       -1.01086426       -3.80905946
 C            0.07520216       -0.72669464       -4.03550697
 C            0.23338048        0.71336189       -4.11684218
 C           -2.04236792        0.25378970       -3.77861348
 C           -1.08435601        1.31676553       -4.02609875
