54
Modified xyz file
 C            1.16781769       -0.09815458        3.87918280
 C            2.37444911       -0.26360743        3.09169081
 C            2.23719548       -1.50189502        2.33924142
 C            0.33712065       -1.26933279        3.64682448
 C            0.87803325       -1.96626103        2.49333065
 C           -1.03717453       -0.82640010        3.60174097
 C            0.33871853        1.07824750        3.67083406
 C           -1.04156725        0.63087842        3.61160804
 C            0.75913044        2.07446947        2.79511373
 C            2.76035925        0.78134176        2.15851680
 C            2.05958758        1.97977271        2.14244728
 C            2.71807495       -1.25893242        1.00265463
 C            3.11363145        0.13736481        0.90129263
 C            2.04352263       -1.81341006       -0.07191043
 C            0.08684580       -2.13173785        1.35257270
 C            0.69264076       -2.18195993        0.08148947
 C           -1.85596971       -1.24072609        2.48204516
 C           -1.30636559       -2.02433995        1.46587136
 C           -1.88266428        1.06697061        2.50529580
 C           -2.65929658       -0.09057552        2.10955967
 C           -0.17942822        2.60407830        1.81692811
 C           -1.34002749        1.89200649        1.52104478
 C            1.97557650        2.72122982        0.89962355
 C            0.59998683        3.17210754        0.74162535
 C            2.92407670        0.79459432       -0.32026797
 C            2.37480598        2.07694257       -0.34135544
 C            2.48772843       -1.39466749       -1.31430022
 C            2.82333565        0.01141439       -1.47012046
 C            1.78348976       -1.82361735       -2.49596851
 C           -0.09071045       -2.46419689       -1.05133125
 C            0.46172925       -2.38065174       -2.33064080
 C           -2.10031878       -2.24739769        0.34815257
 C           -1.47747588       -2.50803729       -0.93506061
 C           -3.24918431       -0.09715752        0.85849470
 C           -3.21816867       -1.34515492        0.11866265
 C           -1.77950633        1.76396341        0.19250050
 C           -2.88569462        0.95365706       -0.07958697
 C            0.19911564        2.89654164       -0.61834920
 C            1.36512647        2.40738864       -1.33678339
 C           -1.03256873        2.30274696       -0.86906218
 C            2.05762718        0.49945396       -2.60634145
 C            1.67078395       -0.67296492       -3.37812431
 C            1.16852465        1.56102676       -2.42415995
 C           -0.34899736       -1.85759122       -3.41734849
 C            0.36069794       -0.72332229       -3.99153228
 C           -2.30814535       -1.89257522       -1.96550363
 C           -3.25093517       -1.01899247       -1.29224243
 C           -3.08440315        0.41954127       -1.41728897
 C           -1.70771764       -1.43801418       -3.13141425
 C           -1.25685667        1.86189219       -2.17158504
 C           -0.10634258        1.52282686       -2.99627638
 C           -0.49613015        0.43632583       -3.87957183
 C           -2.31380042        0.90792078       -2.46002309
 C           -1.81028261       -0.02303009       -3.46219514
