54
Modified xyz file
 C            1.52938592       -0.03770867        3.98898126
 C            0.73781504       -1.24422280        3.85300624
 C            1.59167753       -2.24093517        3.24048771
 C            2.68571996       -0.17805816        3.11637651
 C            2.70971396       -1.53903356        2.62693292
 C            2.62595657        0.89408770        2.14662094
 C            0.73499740        1.07084883        3.48787476
 C            1.55030761        1.79109261        2.53701593
 C           -0.51202883       -0.88696438        3.19520413
 C           -0.53068067        0.55374874        3.01543017
 C           -1.01331559       -1.68694871        2.17235676
 C            1.01661288       -3.09402764        2.22597416
 C           -0.36239344       -2.87867373        1.82989836
 C            2.62996713       -1.76391745        1.19149609
 C            1.81134719       -2.94146026        1.01509243
 C            2.76640470        0.61076450        0.78790467
 C            2.45146201       -0.67742048        0.33160769
 C            2.57662423        1.68612910       -0.06931187
 C            0.91656144        2.47397415        1.50807025
 C            1.71954200        2.75526714        0.40937181
 C           -1.03585642        1.07160483        1.82717256
 C           -0.44665113        2.21917104        1.28218791
 C           -1.89239701       -1.12061412        1.24658489
 C           -1.85025801        0.26723295        1.02151219
 C           -2.40874202       -1.96319165        0.26704990
 C           -0.41532875       -3.31905002        0.45086443
 C            0.88538260       -2.97980740       -0.09789145
 C           -1.52707834       -2.97079941       -0.29183869
 C            1.72749363       -0.84273034       -0.86548390
 C            0.94103817       -1.98988938       -1.07470442
 C            2.20426206        1.44361022       -1.44680300
 C            1.68848389        0.20136379       -1.79869985
 C            1.14141226        3.41207418       -0.74027496
 C            1.53619926        2.64811566       -1.91394364
 C           -1.08653075        2.84396050        0.21355983
 C           -0.29509335        3.56463391       -0.77189488
 C           -2.47693368        0.83440468       -0.09969168
 C           -2.12740950        2.12423633       -0.50208071
 C           -3.15482786       -1.40203827       -0.83915126
 C           -3.19101692        0.03395971       -0.98930950
 C           -1.31849908       -2.55912482       -1.66478792
 C           -0.10666138       -1.94398651       -1.99627795
 C           -2.57319185       -1.94598965       -2.05808341
 C            0.85037709        0.11021308       -2.91233382
 C           -0.05500153       -1.01692533       -3.03157792
 C            0.37222649        2.51441817       -2.76709913
 C           -0.74418971        3.15986113       -2.09069652
 C           -1.98330513        2.42092948       -1.92449496
 C            0.15014595        1.29754036       -3.39635258
 C           -3.09074212        0.30429267       -2.41364052
 C           -2.55600909       -0.89134137       -3.04755583
 C           -1.28568864       -0.53694743       -3.64521574
 C           -2.29106466        1.43292777       -2.85055694
 C           -1.22022152        0.91134352       -3.68888146
