54
Modified xyz file
 C            1.64520325       -0.12081345        4.41680287
 C            0.76704126       -1.25035312        4.67076481
 C            1.21777753       -2.35225465        3.84194924
 C            2.53662446       -0.48207721        3.32603846
 C            2.30128218       -1.86754436        2.99968458
 C            2.37191217        0.50107513        2.27137269
 C            0.82055641        0.98248265        3.95711732
 C            1.38648118        1.47238778        2.71046791
 C           -0.56704524       -0.88095532        4.22617956
 C           -0.56430687        0.54541532        3.95597088
 C            0.12171867       -2.72215209        2.96271201
 C           -0.96454260       -1.78861821        3.15753130
 C            1.96155802       -2.18916072        1.62832279
 C            0.66407695       -2.83414667        1.63335471
 C            2.33094884        0.09706501        0.93784375
 C            2.19494047       -1.25985874        0.61155107
 C            1.87700459        1.02929389        0.00926730
 C            0.52680027        1.99996934        1.75063991
 C            0.93075867        1.97902506        0.41616518
 C           -1.37910846        1.00939833        2.93643788
 C           -0.83965589        1.98887157        2.00800111
 C           -1.59626617       -1.25861063        2.03002693
 C           -2.08510095        0.03851931        2.11365660
 C           -0.15312686       -2.54151635        0.55776597
 C           -1.32447680       -1.79399770        0.75932658
 C            1.64183847       -1.55995647       -0.63753412
 C            0.49687544       -2.36739301       -0.64887047
 C            1.95224764        0.70312128       -1.34125512
 C            1.82879374       -0.64963907       -1.68166903
 C            1.60382495        1.69742608       -2.25240107
 C            0.08902836        2.54049807       -0.54847215
 C            0.59644874        2.65789896       -1.84324161
 C           -1.74857141        1.99969285        0.88030594
 C           -2.45861848        0.72704841        0.89721173
 C           -1.29879686        2.45721127       -0.35059870
 C           -1.96249179       -1.25222864       -0.37685100
 C           -2.55451165        0.02030985       -0.29744548
 C           -0.30362926       -2.37973009       -1.77285187
 C           -1.61547461       -1.77687502       -1.63105682
 C            1.38533610       -1.02386816       -2.95201217
 C            0.26765679       -1.93816182       -3.02453023
 C            1.37396837        1.36252998       -3.64318254
 C            1.18727213       -0.02670236       -3.98685526
 C           -0.31342327        2.84429943       -2.95949073
 C            0.20056091        2.09290293       -4.09217614
 C           -2.11370178        2.13191435       -1.42953314
 C           -2.69182730        0.79862510       -1.44906084
 C           -1.69402324        2.46881451       -2.77133502
 C           -1.88183008       -1.02991700       -2.85140150
 C           -0.78485794       -1.28563531       -3.77710948
 C           -0.16971520       -0.18423937       -4.49693372
 C           -0.80792520        1.11632606       -4.47176175
 C           -2.43907096        0.23618427       -2.76036958
 C           -1.96643767        1.31809875       -3.61846954
