54
Modified xyz file
 C            1.21099079       -0.06231303        3.63028460
 C            2.45482983       -0.25060320        2.90921642
 C            2.43641487       -1.59565147        2.36337840
 C            0.37117191       -1.22613942        3.37459903
 C            1.07186641       -2.08240708        2.44431589
 C           -0.94355670       -0.74676646        3.01702421
 C            0.41134386        1.12027774        3.36379784
 C           -0.97109591        0.68342560        3.28184466
 C            0.87794219        2.08243025        2.47281948
 C            2.79056135        0.65681518        1.82574805
 C            2.04424452        1.81151592        1.63754757
 C            3.06074821       -1.55271012        1.05735634
 C            3.15461526       -0.14878260        0.67122505
 C            2.61625969       -2.45783848        0.10632773
 C            0.44369535       -2.48782904        1.26753337
 C            1.25433354       -2.96591832        0.23252901
 C           -1.56860979       -1.23447212        1.87242991
 C           -0.87102406       -2.07575932        0.98998726
 C           -2.72512665       -0.58304147        1.44212663
 C           -1.89874964        1.46500179        2.60540981
 C           -2.95216944        0.78698002        1.87058894
 C           -0.07298246        2.83651881        1.67011940
 C           -1.43654750        2.57843721        1.78607742
 C            1.72548699        2.23033739        0.28513032
 C            0.51855493        3.03481018        0.35512068
 C            2.75025439        0.23148915       -0.61283669
 C            1.90714369        1.34384460       -0.77762040
 C            2.81714781       -2.11576098       -1.28649081
 C            2.87863291       -0.70843762       -1.63453793
 C            0.71446684       -3.13293610       -1.10727495
 C            1.73466167       -2.70908777       -2.05044703
 C           -1.45515756       -2.42127826       -0.22972059
 C           -0.61648431       -2.82014000       -1.34488284
 C           -3.15016801       -0.68444743        0.05700441
 C           -2.53350696       -1.61134136       -0.76814915
 C           -3.26220794        1.57702072        0.69242253
 C           -2.28966309        2.65514072        0.60925315
 C           -3.41338487        0.66303684       -0.42963740
 C           -0.29536608        3.11852606       -0.76327003
 C           -1.73859906        2.97658092       -0.62641864
 C            1.16279246        1.52112180       -1.95558598
 C            0.10670854        2.43281230       -1.97884033
 C            2.13239804       -0.54252654       -2.86140612
 C            1.38347126       -1.77056121       -3.09847473
 C            1.20627354        0.56113946       -2.96314953
 C           -0.98996722       -2.00329429       -2.49580045
 C           -2.17802477       -1.24627207       -2.13153526
 C           -0.00976746       -1.40398703       -3.28151701
 C           -0.04270357        0.03277510       -3.48967295
 C           -2.95405399        1.04929295       -1.68411982
 C           -2.23306188        2.30512967       -1.81884856
 C           -1.10298349        2.07780127       -2.70181982
 C           -2.31659891        0.07299993       -2.55539745
 C           -1.21544948        0.73504120       -3.24376368
