54
Modified xyz file
 C            1.64508951        0.06466269        3.72339389
 C            0.81835790       -1.11827465        3.57041178
 C            1.34797309       -1.89846534        2.46736410
 C            2.58785917        0.09309197        2.61835080
 C            2.41239353       -1.11766556        1.84873884
 C            2.43626113        1.35914856        1.93762858
 C            0.78107622        1.22281811        3.58795674
 C            1.39747344        2.11660345        2.63008973
 C           -0.56522604       -0.69243868        3.50340669
 C           -0.56507904        0.75045814        3.31431083
 C           -1.43964798       -1.45951681        2.75369322
 C            0.45647058       -2.58798044        1.64513810
 C           -0.90701663       -2.55587871        1.95488123
 C            0.86947380       -2.90321918        0.34917999
 C            2.46715374       -1.05420373        0.46122908
 C            1.96253748       -2.14588317       -0.23773243
 C            2.47909983        1.38766029        0.54406162
 C            2.58291008        0.18922435       -0.18305618
 C            2.02897325        2.54154024       -0.09520218
 C            0.56349215        2.92740952        1.87510824
 C            1.03909622        3.36192933        0.57680883
 C           -1.26964273        1.31226466        2.24599776
 C           -0.83172105        2.53087309        1.71560956
 C           -2.42202535       -0.78656456        1.92730741
 C           -2.20298935        0.53661579        1.54674774
 C           -1.89535940       -2.84253781        0.92811570
 C           -2.86174145       -1.75315892        0.93494473
 C           -0.10282016       -3.16762678       -0.70356201
 C           -1.46020287       -3.04255611       -0.43959380
 C            1.74027693       -2.05986955       -1.66793272
 C            0.43894781       -2.65540608       -1.95325657
 C            2.58931821        0.23731708       -1.58062000
 C            2.15676288       -0.92276508       -2.34550112
 C            1.66081222        2.49320658       -1.49615094
 C            2.09527375        1.42477481       -2.26197151
 C           -0.10797093        3.47720388       -0.30707742
 C           -1.26344434        2.94958971        0.39104933
 C            0.26431928        2.90015753       -1.58703863
 C           -2.73190027        0.99412896        0.33845886
 C           -2.16173007        2.16150525       -0.30852742
 C           -3.05650183       -1.31737700       -0.43538620
 C           -2.28797309       -2.20503398       -1.29518245
 C           -3.08994507        0.04463295       -0.70708976
 C           -0.41423219       -2.06857101       -2.88346218
 C           -1.77442923       -1.72754231       -2.49672851
 C            1.39721670       -0.45145756       -3.49003292
 C            1.25518322        0.98762262       -3.36199963
 C            0.07886801       -1.00504563       -3.74020772
 C           -0.64020200        2.08496717       -2.26675287
 C           -1.88859891        1.81024847       -1.69776411
 C           -2.55728948        0.54355671       -1.96607627
 C           -2.00886887       -0.34397199       -2.88324188
 C           -0.16441620        1.29255079       -3.31052062
 C           -0.88169561        0.08724789       -3.68831535
