82 

C -0.381500 4.121020 -0.312590
C -1.495620 3.687270 -1.080880
C -2.649020 3.229190 -0.387330
C -1.228280 3.131430 -2.364980
C 0.101640 2.890590 -2.791780
C 1.219980 3.208050 -1.971990
C 0.954940 3.931950 -0.788420
C -2.066490 2.098410 -2.918970
C -3.158390 1.580350 -2.194950
C -3.477050 2.187510 -0.935790
C -3.480550 0.194150 -2.367340
C -1.231730 1.241260 -3.722070
C -0.391240 -1.022000 -4.005470
C -1.502650 -0.152530 -3.838060
C -2.656310 -0.660520 -3.180460
C 3.308260 2.400820 -0.958510
C 2.416050 2.362920 -2.045910
C 2.413970 1.173730 -2.899590
C 1.215590 0.837700 -3.674200
C 0.099550 1.719220 -3.632890
C 0.946490 -0.514530 -3.981270
C -3.974740 -0.583610 -1.274340
C -4.182780 -0.002740 0.012080
C -3.970950 1.401610 0.151020
C -3.968230 -0.825620 1.157220
C -3.478070 -1.917280 -1.413850
C -2.059850 -3.586590 -0.350720
C -3.153400 -2.703300 -0.259960
C -3.471500 -2.160060 1.028420
C -0.389720 -2.335830 -3.411850
C -1.499450 -2.787530 -2.647940
C -2.654900 -1.960680 -2.593200
C -1.225960 -3.621210 -1.525810
C -3.467740 -0.278250 2.380250
C -3.146070 1.115380 2.482630
C -3.470600 1.958730 1.369480
C -2.050110 1.480920 3.288250
C -2.639970 -1.275070 3.003550
C -0.369500 -1.790760 3.727990
C -1.481930 -0.906240 3.741980
C -1.211210 0.482630 3.901610
C -1.219750 -3.851240 0.789810
C -1.486640 -3.255020 2.055360
C -2.642100 -2.434490 2.170960
C -0.371790 -2.962210 2.887080
C -1.213980 2.603390 2.943740
C -1.487650 3.401300 1.796030
C -2.645400 3.087930 1.032280
C -0.377630 3.978260 1.121810
C 0.118280 2.283900 3.306900
C 1.232460 2.757510 2.559330
C 0.961540 3.700310 1.543340
C 2.941310 3.040280 0.294100
C 1.799760 3.784490 0.371770
C 3.317710 -0.381630 2.544950
C 2.430010 0.581650 3.060110
C 2.428410 1.915590 2.457890
C 3.314860 2.167270 1.393980
C 0.120290 0.969750 3.900420
C 0.967930 -1.287910 3.796330
C 1.235900 0.098810 3.760360
C 4.144100 -1.307230 0.551240
C 4.146170 -0.119770 1.403550
C 4.144620 1.138450 0.835350
C 4.140530 -1.171070 -0.822570
C 1.807530 -2.221060 3.084620
C 3.314320 -2.302900 1.166190
C 2.947400 -1.785090 2.473760
C 0.110370 -4.009840 0.325670
C 3.306670 -2.026760 -1.616810
C 2.418980 -2.952020 -1.036260
C 2.423050 -3.096610 0.420170
C 1.228550 -3.601970 1.104020
C 0.964030 -3.191610 2.429860
C 2.933040 -1.262000 -2.794660
C 1.789190 -1.569560 -3.472520
C 0.949020 -2.650420 -3.016410
C 1.220530 -3.313480 -1.799170
C 0.106230 -3.867420 -1.109510
C 4.140570 1.282590 -0.618670
C 4.138740 0.160910 -1.423920
C 3.304010 0.128380 -2.590080
