100 

C 2.58584 -3.73168 1.08333
C 3.27764 -2.80537 1.87279
C 4.45896 -2.26697 1.31033
C 5.04005 -1.03374 1.79786
C 4.35385 -.32393 2.76207
C 3.07972 -.82333 3.26312
C 2.50345 -2.02070 2.82863
C 1.21036 -4.07551 1.35522
C .41924 -3.29207 2.20877
C 5.58188 1.04063 .58448
C 4.83211 1.78259 1.58417
C 5.65357 -.34544 .67700
C 4.24750 1.11549 2.64725
C 2.93196 1.49211 3.08091
C -.02181 3.39998 1.83546
C -1.38154 3.43840 2.06480
C .77350 2.51118 2.64645
C 2.20405 2.49396 2.44324
C 2.78589 3.17327 1.29544
C 4.09768 2.83363 .91869
C .86628 .20390 3.52577
C 2.25108 .29790 3.53003
C -3.36247 .08131 3.14070
C -1.98123 .08945 3.38338
C -1.30410 1.37794 3.36339
C .12764 1.42566 3.29076
C -2.01405 2.51374 2.96392
C -1.53871 -4.10036 .98296
C -1.01715 -3.31367 2.02099
C 1.05346 -2.17226 2.90313
C -3.24370 -2.14922 2.14082
C -1.85185 -2.24155 2.56205
C -1.22265 -1.12614 3.17322
C .24161 -1.07818 3.30801
C -3.98937 -1.02952 2.51084
C 3.60663 3.23349 -1.43537
C 5.35404 1.67081 -.69892
C 4.50534 2.82823 -.46986
C 1.88882 3.71748 .28169
C .46406 3.78661 .52887
C 2.32323 3.75505 -1.04546
C 3.41412 2.43300 -2.63014
C 4.10084 1.24632 -2.77562
C 5.13894 .88253 -1.83112
C 5.11159 -.55608 -1.70768
C 5.41641 -1.15333 -.49973
C 2.01801 2.48717 -2.97712
C -.86796 .18001 -3.52035
C -2.25256 .27663 -3.52553
C -.12680 1.40205 -3.29550
C 1.30507 1.35000 -3.36695
C 1.97956 .05984 -3.37564
C 3.36091 .05023 -3.13297
C .02717 3.38760 -1.85655
C 1.38734 3.42059 -2.08568
C -4.09365 2.83565 -.93382
C -2.78150 3.17042 -1.31406
C -2.20136 2.48147 -2.45693
C -.77057 2.49435 -2.66039
C -2.93131 1.47567 -3.08605
C -.45780 3.78434 -.55274
C -2.31661 3.76766 1.02229
C -1.88278 3.72015 -.30472
C 2.78325 -3.76627 -.31824
C 4.67647 -2.33082 -.09739
C 3.69103 -2.89987 -.93489
C -1.05949 -2.19100 -2.87854
C 3.23756 -2.17213 -2.11585
C 3.98551 -1.05696 -2.49454
C 1.00861 -3.33065 -1.98734
C 1.52877 -4.11111 -.94377
C -.24567 -1.10171 -3.29183
C 1.21840 -1.15217 -3.15590
C 1.84542 -2.26437 -2.53613
C -3.08316 -.84092 -3.24934
C -2.50921 -2.03602 -2.80545
C -.42767 -3.30705 -2.17547
C -1.22031 -4.08258 -1.31621
C -.68360 -4.54697 -.07294
C .67272 -4.54797 .11543
C -4.35631 -.33540 -2.75189
C -5.04366 -1.03643 -1.78198
C -4.46502 -2.26699 -1.28519
C -3.28492 -2.81188 -1.84360
C -2.59497 -3.73349 -1.04706
C -5.58139 1.04815 -.58499
C -4.83038 1.78099 -1.59067
C -4.24738 1.10468 -2.64876
C -5.65576 -.33843 -.66650
C -3.60094 3.25211 1.41686
C -5.35177 1.68752 .69336
C -4.50083 2.84145 .45490
C -5.42020 -1.13777 .51641
C -5.11422 -.53213 1.71976
C -5.13819 .90747 1.83162
C -4.09931 1.27630 2.77308
C -3.41010 2.46030 2.61780
C -2.79240 -3.75728 .35471
C -4.68262 -2.31975 .12302
C -3.69851 -2.88460 .96490
