100 

C -4.79692 -.73133 .74148
C -4.44569 -2.09798 .59231
C -4.47056 2.12444 .94200
C -4.22903 1.32414 2.03926
C -4.41655 -.11223 1.95052
C -3.64372 3.26701 .71234
C -3.07955 1.57629 2.85302
C -2.21394 2.63618 2.60894
C -2.53414 3.55608 1.52713
C -.23784 4.42937 1.61782
C -1.47167 4.37810 .95620
C -1.46323 4.62994 -.44290
C -3.44247 -.72195 2.79484
C -2.95090 -2.00635 2.54460
C -3.59094 -2.74082 1.51393
C -1.58230 -2.32571 2.92738
C -.99022 -3.53963 2.38916
C .36794 -3.75486 2.59333
C -2.57958 .30562 3.31817
C -1.23565 .07663 3.56057
C -.74073 -1.29477 3.45920
C 1.60160 -.37694 3.60374
C .67850 -1.51126 3.56724
C 1.18314 -2.77542 3.22942
C 2.93768 -.61130 3.27305
C 3.37519 -1.86698 2.72023
C 2.52759 -2.94209 2.72376
C 1.98983 2.04785 3.11528
C .06258 3.50696 2.71378
C -.84028 2.49511 3.07947
C -.32283 1.22253 3.50763
C 1.09613 .99809 3.52236
C 1.44556 3.29910 2.75103
C -1.61469 -4.22170 1.25246
C -2.87012 -3.78651 .81136
C 1.20128 -4.46582 1.62751
C .64246 -4.92859 .46799
C -.78603 -4.83339 .27962
C 2.78028 -3.21425 -2.01693
C 1.29128 -4.63638 -.79312
C 2.52162 -3.93104 -.84153
C 3.14933 -3.48336 .39893
C 4.01971 -2.30846 .38122
C 2.50543 -3.83032 1.60523
C 4.19475 -1.60437 1.57671
C -1.01354 -4.57035 -1.09395
C -2.14890 -3.87226 -1.52669
C -3.18040 -3.70175 -.56840
C -4.18960 -2.68090 -.71977
C -4.15718 -1.86897 -1.82341
C .26927 -4.38819 -1.74321
C 1.73531 -2.94022 -2.94529
C .43058 -3.39724 -2.73533
C -.69029 -2.53176 -3.09527
C -2.00101 -2.87663 -2.59026
C -3.02805 -1.94465 -2.73859
C -4.77227 1.49560 -.34511
C -4.91575 .09512 -.46466
C -4.54843 -.47627 -1.71000
C -3.75120 .25783 -2.62258
C -3.46481 1.61130 -2.42788
C -4.13804 2.25852 -1.35863
C -2.46540 4.02275 -1.28820
C -3.55900 3.43042 -.72951
C -1.47290 -.20310 -3.51808
C -2.76335 -.63043 -3.20582
C 2.58282 1.05905 -3.42536
C 1.25808 .68133 -3.66453
C .20695 1.66068 -3.40752
C -1.16300 1.23362 -3.39173
C -2.17715 2.12331 -2.89325
C .57215 2.93113 -2.83755
C -.44161 3.76680 -2.35083
C -1.78967 3.39342 -2.41411
C -.42904 -1.19594 -3.55548
C 1.98107 -1.65534 -3.54069
C .94477 -.73943 -3.73239
C 4.06614 2.02311 -1.90991
C 2.91265 2.28048 -2.72815
C 1.92654 3.18019 -2.34890
C 4.20716 2.69140 -.71852
C 3.27521 3.71915 -.36551
C 2.14110 3.98367 -1.14997
C 3.28527 -1.24277 -3.10923
C 4.38853 .60997 -2.00396
C 3.59298 .09384 -3.07554
C 4.49123 -.18523 1.59622
C 4.55227 1.93408 .47497
C 4.75513 .53306 .41854
C 4.65097 -.16999 -.86127
C 4.28013 -1.58661 -.87798
C 3.71051 -2.10258 -2.04564
C 2.03783 4.11613 1.70099
C 3.18477 3.70846 1.08301
C 3.88391 2.53584 1.57434
C 3.31624 1.73262 2.59395
C 3.75031 .40562 2.65517
C -.24228 4.58962 -1.15585
C .99547 4.60530 -.49521
C .96754 4.69272 .92199
