100 

C 3.11605 3.56981 -.79858
C 3.45486 2.62587 -1.76062
C 4.40477 1.61954 -1.36698
C 4.43124 .32581 -2.01463
C 3.61742 .09122 -3.07893
C 1.85107 4.26183 -.85011
C -.41279 4.38032 -1.59379
C .90590 3.99848 -1.86870
C 1.16863 2.91961 -2.82319
C 2.47313 2.30714 -2.81226
C 2.63150 1.08546 -3.48310
C 2.29145 -3.29076 -2.28635
C 3.22769 -2.26467 -2.28343
C 3.03192 -1.22500 -3.25881
C 1.78781 -1.05232 -3.87225
C -2.15243 .40930 -3.69905
C -.88632 -.08474 -3.91517
C -.64453 -1.51695 -3.66848
C .72494 -1.98213 -3.67467
C 1.05519 -3.17494 -3.02973
C -1.52728 3.75263 -2.26260
C -1.30841 2.68276 -3.13926
C .05257 2.22704 -3.41538
C .22724 .88513 -3.91234
C 1.52097 .37874 -3.98538
C -2.38321 1.78335 -3.30903
C 3.93552 -1.96917 -1.05117
C 4.62114 -.70004 -.98816
C 2.04754 -4.07408 -1.11796
C 2.59590 -3.71347 .11845
C 3.57425 -2.62382 .16035
C 3.84126 -1.94819 1.43812
C 3.10096 -2.34260 2.57259
C .70286 -4.61069 -1.24727
C -.02571 -4.91846 -.13304
C .52475 -4.62182 1.17130
C 1.81714 -4.05084 1.31123
C 2.04605 -3.32888 2.48548
C -1.44122 -4.63759 -.10977
C -3.29258 -3.35226 -.91793
C -2.08150 -4.00145 -1.20200
C -3.19214 -.39291 -3.12484
C -2.95639 -1.73042 -2.77090
C -1.65204 -2.32006 -3.05067
C -1.27460 -3.53962 -2.33383
C .05806 -3.95005 -2.37031
C -3.76821 -2.25417 -1.74031
C 4.42118 -.62803 1.45413
C 4.83373 -.04296 .20975
C 2.69743 -1.39663 3.55247
C 3.17034 -.09916 3.49976
C 4.10627 .26584 2.50562
C 1.31218 -1.62466 3.87283
C -2.28904 2.56292 2.86303
C -.02294 1.87463 3.43333
C .38680 -.58478 3.93682
C .88176 .79292 3.83439
C 2.25171 .99342 3.70059
C -1.43565 1.59688 3.41333
C -.54743 -4.20530 1.99620
C -.36217 -3.19902 2.97032
C .96149 -2.89602 3.30014
C -1.93305 .21529 3.52858
C -1.39513 -2.19208 3.19063
C -1.01583 -.88856 3.65561
C 3.91597 1.69810 2.25457
C 4.21705 2.26792 .99235
C 4.73315 1.40880 -.02290
C 3.46456 3.38632 .58488
C 2.78030 2.12366 2.97566
C .48879 3.03688 2.76722
C 1.92287 3.13517 2.48859
C 2.37189 3.86065 1.37298
C -1.78186 3.66934 2.12893
C -.40997 3.88944 2.01318
C .06072 4.56583 .80472
C 1.42455 4.48342 .47706
C -.82681 4.73817 -.27831
C -4.03427 .93383 2.39295
C -3.57186 2.21396 2.28284
C -3.74558 2.93397 1.05650
C -2.71014 3.94486 1.03743
C -2.22661 4.40762 -.15841
C -2.67921 -2.38638 2.54410
C -3.58839 -1.33116 2.55824
C -3.23307 -.05877 3.08496
C -4.56256 -1.95916 .40562
C -3.72020 -3.13219 .41304
C -2.83591 -3.39502 1.49055
C -1.76985 -4.25977 1.21752
C -4.55034 -1.11420 1.48025
C -4.01723 .45684 -2.33840
C -4.60210 -.00195 -1.14779
C -4.56522 -1.40524 -.93299
C -2.65374 3.77628 -1.38662
C -4.16566 2.27128 -.11365
C -3.59546 2.72558 -1.38415
C -3.50981 1.81074 -2.45884
C -4.69799 .31481 1.28489
C -4.66689 .90283 .00668
