100 

C 4.28134 .62435 1.93557
C 3.90006 1.92284 1.61226
C 4.26147 2.38587 .31773
C 3.55234 3.48532 -.29429
C 2.61285 4.16587 .42433
C 3.54501 -.14660 2.91560
C 2.29511 .28195 3.37623
C 1.87161 1.65865 3.08008
C 2.74014 2.49631 2.28523
C 2.23086 3.69215 1.75458
C -.46960 1.00652 3.69338
C .50552 2.03195 3.27256
C .01544 3.27539 2.71869
C .89856 4.08330 1.98043
C -1.81865 1.31070 3.62530
C 1.30779 -.73627 3.70486
C 1.66099 -2.08949 3.54284
C -.08832 -.40431 3.76688
C -.88807 4.79898 .46939
C 1.42217 4.67369 -.22826
C .44395 4.81389 .79842
C -1.84849 4.24116 1.39204
C -2.31695 2.51661 3.00336
C -1.41497 3.48289 2.49289
C -1.28559 4.45756 -.86049
C -.35631 4.06703 -1.82436
C 1.05939 4.24234 -1.52159
C 2.05376 3.49116 -2.27968
C 3.28943 3.14765 -1.67655
C 1.61317 2.66072 -3.31824
C -2.59483 3.85014 -.77275
C -4.01924 1.97299 -1.22074
C -2.99124 2.84149 -1.66224
C -2.07186 2.38481 -2.69064
C -.78972 3.07963 -2.82545
C .19875 2.49484 -3.60479
C -3.53673 2.22298 2.37602
C -3.82689 2.78112 1.08756
C -2.96745 3.79095 .61034
C -4.45040 1.94828 .12283
C 2.26468 1.43398 -3.60374
C 3.31967 .95332 -2.80503
C 3.89830 1.88879 -1.92372
C 3.40397 -.48406 -2.50593
C 4.19170 -.90516 -1.36575
C 4.04294 -2.21841 -.89781
C 1.29129 .53435 -4.15487
C .16667 -1.56473 -4.09663
C 1.37169 -.83743 -3.92633
C 2.42188 -1.37461 -3.05910
C 2.19537 -2.66707 -2.44821
C 3.03062 -3.06727 -1.41010
C -4.14501 .64896 -1.75292
C -3.27640 .16376 -2.70907
C -2.24643 1.07407 -3.24545
C -1.17134 .49500 -4.01401
C .02456 1.20479 -4.17671
C -1.08164 -.91276 -4.15387
C 4.71098 .08260 -.41719
C 4.54493 1.44920 -.70106
C 4.27195 -2.58932 .49143
C 4.58307 -1.61051 1.40980
C 4.81287 -.26149 .95205
C 3.32157 -3.63186 .83589
C 3.84631 -1.53088 2.66269
C 2.92068 -2.49565 2.98294
C 2.68440 -3.61238 2.08042
C 1.21986 -4.32065 -.25826
C 2.56210 -3.93338 -.32805
C 1.30618 -3.94613 2.16015
C .57428 -4.34965 1.03423
C .41377 -4.17475 -1.46551
C -.02462 -2.86002 -3.47962
C .90444 -3.36086 -2.57206
C -.95630 -4.40789 -1.35486
C -2.93565 -3.97142 -.21146
C -1.60656 -4.48027 -.05532
C -.87795 -4.26951 1.11709
C -3.55262 -3.34180 .84625
C -2.82816 -3.13334 2.06013
C -1.49837 -3.52130 2.19725
C -1.43263 -3.04035 -3.30138
C -3.07183 -3.42927 -1.54958
C -1.89629 -3.82805 -2.27050
C -4.71679 -.19363 -.71179
C -4.38602 -2.18779 .60868
C -4.42665 -1.58921 -.65990
C -3.67237 -2.17760 -1.76353
C -3.12172 -1.30465 -2.80509
C -2.08437 -1.79450 -3.58896
C -3.86944 .83495 2.67521
C -4.32595 -1.36905 1.79516
C -4.55194 .01826 1.73281
C -4.85329 .58133 .44508
C .69131 -3.04684 3.13483
C -.65407 -2.73728 3.09862
C -1.07087 -1.42845 3.55665
C -3.32156 -1.91271 2.66022
C -2.46338 -1.06452 3.37748
C -2.82417 .29802 3.45615
