100 

C -4.92521 .57630 -.46585
C -4.67967 1.86963 .05763
C -4.32103 -2.05116 -1.47387
C -4.20225 -.96019 -2.29672
C -4.56263 .35957 -1.81910
C -3.35501 -3.11068 -1.56616
C -3.73487 1.29075 -2.49994
C -3.37964 2.52642 -1.93245
C -3.98926 2.85641 -.69595
C -3.29833 3.71832 .24495
C -2.17231 4.38147 -.14052
C -2.79105 .55670 -3.30322
C -1.50664 1.03090 -3.54879
C -1.14307 2.36612 -3.08358
C -2.08482 3.10818 -2.28082
C -1.59130 4.14008 -1.46071
C 1.18467 1.84665 -3.62971
C .24773 2.73206 -3.05660
C -1.10301 -4.55805 -.80598
C -1.02450 -3.76845 -1.97153
C -2.18639 -2.98808 -2.34627
C -2.00750 -1.78530 -3.14073
C -3.04853 -.84052 -3.14882
C .47089 -2.18550 -3.26014
C -.68253 -1.34697 -3.53300
C -.48971 .04568 -3.83599
C .81874 .52451 -4.01145
C 1.30495 4.57014 .53253
C -1.10126 4.56379 .79818
C .06947 4.80912 .00115
C .74974 3.70357 -2.11755
C -.20294 4.41592 -1.36376
C 2.36674 4.07508 -.29932
C 2.10835 3.58221 -1.59630
C 1.41443 3.95511 1.82984
C .28954 3.40175 2.47082
C -1.02579 3.77398 1.96383
C -2.18903 2.99435 2.33586
C -3.35571 3.11803 1.55332
C -4.32239 2.05958 1.45931
C -2.01289 1.79159 3.13092
C -3.05460 .84777 3.13701
C -4.20615 .96844 2.28242
C -.49798 -.04075 3.82966
C .80955 -.52059 4.00837
C 1.79863 1.64912 3.42361
C .46544 2.18974 3.25606
C -.68900 1.35220 3.52612
C 1.93849 .32326 3.88401
C 2.69322 3.32269 1.86571
C 4.02639 1.38904 2.34492
C 2.92718 2.20957 2.69251
C 4.16525 2.41088 .09836
C 3.28915 3.41423 .56999
C 4.64584 1.49500 1.05561
C 4.07984 2.01999 -1.30350
C 2.56145 1.83081 -3.23358
C 3.01167 2.57991 -2.13326
C 4.62874 .77614 -1.66169
C -4.68079 -1.86079 -.07305
C -4.92651 -.56737 .44999
C -4.56660 -.35107 1.80400
C -3.74111 -1.28305 2.48656
C -3.38559 -2.51890 1.91961
C -3.99277 -2.84816 .68172
C -2.17600 -4.37487 .13015
C -3.30070 -3.71086 -.25784
C -1.51512 -1.02506 3.53987
C -2.79845 -.54976 3.29172
C 1.17546 -1.84328 3.62705
C .23915 -2.72774 3.05171
C -1.15158 -2.36060 3.07543
C -2.09207 -3.10177 2.27076
C -1.59747 -4.13410 1.45166
C 2.10256 -3.57963 1.59591
C .74256 -3.69964 2.11391
C -.20921 -4.41105 1.35790
C 2.36349 -4.07275 .29920
C 4.62451 -.77561 1.66765
C 4.07539 .00373 2.74243
C 3.05104 -.51063 3.50597
C 4.07568 -2.01922 1.30795
C 3.00525 -2.57831 2.13511
C 2.55288 -1.82864 3.23439
C 4.64718 -1.49426 -1.04957
C 5.08088 -.17089 -.65959
C 5.07958 .17112 .66679
C 3.28800 -3.41259 -.56774
C 4.16393 -2.41005 -.09372
C 3.05918 .51250 -3.50379
C 2.69482 -3.32036 -1.86491
C 2.93151 -2.20727 -2.69090
C 4.03061 -1.38776 -2.34045
C 4.08151 -.00271 -2.73769
C .06597 -4.80437 -.00650
C 1.30284 -4.56668 -.53506
C 1.41561 -3.95162 -1.83202
C .29239 -3.39726 -2.47553
C 1.80507 -1.64603 -3.42442
C 1.94697 -.32031 -3.88439
