100 

C 2.31844 3.26050 -2.50267
C 2.90636 1.99536 -2.70804
C 3.96140 1.58043 -1.80484
C 4.32051 .17466 -1.70897
C 5.04582 -.24875 -.57433
C 4.99534 -1.60380 -.10253
C 3.55936 -.81882 -2.45483
C 3.67707 -2.15641 -2.06578
C 4.36631 -2.55920 -.86830
C .96855 3.54452 -2.90716
C 2.13664 .98804 -3.43564
C 2.38403 -.41900 -3.23665
C .29280 2.64471 -3.67838
C .89467 1.36910 -3.96618
C -1.08317 3.92603 -1.50779
C .27734 4.19630 -1.79751
C -1.13382 2.44932 -3.49084
C -1.84277 3.09563 -2.42868
C 3.92290 -2.50210 1.91685
C 3.34458 -3.56727 1.11982
C 4.78968 -1.58459 1.34163
C 3.59714 -3.61897 -.23975
C 2.52021 -3.96067 -1.13637
C 1.25947 -4.36728 -.65954
C .19474 -4.28845 -1.58442
C -.17056 .44146 -4.10399
C -.00524 -.90111 -3.82554
C 1.32765 -1.36305 -3.47946
C 1.45523 -2.71621 -2.97641
C 2.60115 -3.08802 -2.27101
C .28947 -3.47788 -2.73255
C 3.78368 .24851 2.67192
C 2.80243 -.69912 3.18974
C 4.74995 -.21905 1.76328
C 2.92041 -2.03923 2.82909
C 1.74203 -2.86409 2.65765
C .45970 -2.40340 2.93756
C .31687 -1.06671 3.51452
C 1.48734 -.23883 3.63810
C 1.31046 1.14873 3.78361
C -2.16088 -1.26295 3.19981
C -.99015 -.47705 3.57727
C -1.12088 .94576 3.64402
C .03632 1.72604 3.72740
C -3.39335 -.60430 3.08066
C -1.99116 -2.53734 2.53353
C -.65029 -3.05123 2.28541
C -3.05319 -3.03474 1.76888
C .95199 -4.19477 .76001
C 1.99195 -3.78720 1.59809
C -1.18010 -4.29669 -1.14510
C -1.48533 -4.16803 .22691
C -.40659 -3.92187 1.17825
C -2.78140 -3.73897 .53905
C 5.11637 .58391 .60182
C 2.25823 2.09961 3.22526
C 3.45048 1.67454 2.63122
C 3.97368 2.49375 1.59510
C 4.74658 1.89305 .52138
C 1.52296 3.20148 2.71217
C 1.90514 3.84416 1.52118
C 3.20111 3.53847 1.03059
C 3.47861 3.56155 -.40060
C 2.51258 3.97353 -1.27243
C .14047 2.99622 3.02626
C -.87606 3.43151 2.19732
C -.52061 4.05553 .91849
C .85563 4.26279 .59582
C 1.21105 4.41876 -.77713
C -2.82398 3.61935 .15748
C -1.49523 4.01530 -.14574
C -3.47102 .84272 3.03484
C -2.32084 1.61313 3.17088
C -2.19667 2.83530 2.39946
C -3.19872 3.13876 1.47854
C 4.29894 2.43316 -.73319
C -5.12852 .00264 1.62100
C -4.53614 1.21546 2.15161
C -4.36692 2.32904 1.33657
C -5.42589 -.07451 .26269
C -4.63776 -2.39648 .18417
C -4.26986 -2.30110 1.58271
C -4.46029 -1.11408 2.26534
C -5.10656 -1.27895 -.47573
C -1.94399 -3.56920 -2.09246
C -3.14895 -2.94175 -1.74111
C -3.67164 -3.25763 -.46268
C -1.42475 1.12638 -3.82633
C -2.54226 .44464 -3.27471
C -2.47572 -.98677 -3.14614
C -1.21126 -1.66881 -3.47159
C -1.02857 -2.95915 -3.01615
C -4.48899 -.88541 -1.74106
C -3.45490 -1.65376 -2.34085
C -4.65415 2.23004 -.07893
C -3.64170 2.99134 -.79066
C -3.07687 2.52962 -2.02071
C -5.11247 1.04450 -.60392
C -4.49236 .51924 -1.81538
C -3.46906 1.21494 -2.50396
