100 

C 1.06477 -4.04326 .93455
C 1.58088 -3.68127 -.33099
C 2.97366 -3.23270 -.38417
C 3.44201 -2.48037 -1.52277
C 4.63526 -1.73340 -1.39428
C 4.87512 -.53450 -2.16993
C 2.49022 -2.10510 -2.56079
C 2.82336 -1.00901 -3.38181
C 3.97422 -.17364 -3.13951
C -.31267 -3.98315 1.19801
C .13188 -1.79823 -3.24070
C -1.72613 -3.01067 -2.11233
C -1.23739 -3.80576 .17624
C -.75942 -3.51875 -1.14673
C .64806 -3.35545 -1.37454
C 1.10267 -2.51026 -2.48566
C -3.09612 -3.02363 -1.78222
C -3.91876 -2.02462 2.06495
C -2.78437 -2.79280 1.86736
C -2.58817 -3.43948 .58270
C -3.53306 -3.24664 -.41287
C 5.03006 1.79030 -1.38232
C 4.02666 2.16421 -2.37134
C 5.47444 .47492 -1.30545
C 3.56546 1.21874 -3.28521
C 2.20023 1.23410 -3.67223
C 1.27229 2.13848 -3.11285
C -.49125 .55741 -3.80392
C -1.81071 .19104 -3.86501
C -1.28173 -2.10748 -3.12706
C .48257 -.52238 -3.80654
C 1.80211 -.15566 -3.86401
C -2.20905 -1.19980 -3.68200
C 5.45934 .56044 1.15372
C 4.91565 1.89735 1.07218
C 5.70567 -.14707 -.01757
C 4.71792 2.50397 -.16361
C 3.52068 3.26137 -.38904
C 3.90359 2.02456 2.08162
C 2.76938 2.79388 1.88746
C 2.57465 3.44830 .60654
C -.14113 1.82997 -3.23018
C 1.71558 3.03551 -2.09210
C 3.08513 3.04646 -1.76016
C .29835 3.98802 1.22207
C 1.22433 3.81685 .20051
C -1.11268 2.53749 -2.47201
C -.65935 3.37596 -1.35533
C .74782 3.53781 -1.12473
C 4.76358 -2.19276 .98681
C 4.54730 -1.46192 2.23706
C 5.26373 -1.53503 -.11737
C 4.80712 -.10202 2.27842
C 3.81162 .77410 2.81537
C 2.57817 .30294 3.30287
C 1.60717 2.49963 2.71238
C .48917 3.29966 2.50594
C 1.72363 -3.60535 2.14483
C 3.69450 -3.12915 .82507
C 2.99430 -3.14697 2.09058
C 1.43918 1.21313 3.32332
C 2.35594 -1.11523 3.35969
C 3.36370 -1.96872 2.85120
C .75210 -2.93796 2.98348
C .11237 .72077 3.57350
C .98702 -1.61963 3.44455
C -.76844 2.93245 3.00024
C -1.00395 1.61134 3.45309
C -.12950 -.72986 3.56897
C -2.37267 1.10730 3.36349
C -2.59489 -.31055 3.29799
C -1.45596 -1.22083 3.31425
C -1.62320 -2.50359 2.69552
C -.50492 -3.30228 2.48560
C -3.82777 -.77864 2.80636
C -4.77751 2.19912 .99413
C -4.56276 1.46089 2.24040
C -4.82264 .10080 2.27351
C -5.27642 1.54809 -.11448
C -3.37984 1.96383 2.85894
C -1.73894 3.60455 2.16427
C -3.70822 3.13632 .83924
C -3.00949 3.14648 2.10570
C -3.98364 .20465 -3.14290
C -2.83244 1.04145 -3.37886
C -2.50017 2.13284 -2.55128
C -4.88557 .55970 -2.17228
C -4.64651 1.75402 -1.38950
C -3.45320 2.50195 -1.51232
C -2.98612 3.24730 -.36871
C -1.59342 3.69543 -.31110
C -1.07873 4.04938 .95718
C -5.04153 -1.76982 -1.39880
C -4.03708 -2.13788 -2.38905
C -3.57469 -1.18682 -3.29651
C -5.48584 -.45485 -1.31453
C -5.47333 -.55492 1.14407
C -4.92959 -1.89132 1.05515
C -4.73051 -2.49059 -.18405
C -5.71838 .15954 -.02329
