100 

C 5.25408 .33977 .67729
C 4.74632 1.49358 1.39868
C 5.24155 .34552 -.70833
C 4.41450 2.65187 .72813
C 3.29673 3.42994 1.17767
C 3.63004 -2.95082 1.38259
C 4.50905 -2.04701 .71623
C 4.80201 -.84347 1.38429
C 3.98443 -.41031 2.47675
C 1.72027 -.54099 3.42846
C 2.92666 -1.19027 2.94597
C 2.85821 -2.52652 2.48136
C -.63568 -.72896 3.95859
C .53782 -1.36086 3.60567
C .67212 4.39735 1.14081
C 1.01377 3.45223 2.12048
C 2.38975 2.94647 2.14276
C 2.67879 1.67010 2.76587
C 3.87849 1.02551 2.44205
C -.05041 2.73066 2.76427
C .28711 1.49070 3.46210
C 1.59352 .88124 3.33511
C -.75616 .68849 3.90651
C 4.51354 -2.04172 -.74507
C 4.78013 -.83214 -1.41290
C 2.85072 -3.94662 .65780
C 2.89967 -3.97325 -.71224
C 3.66429 -2.95557 -1.42185
C 1.56893 -4.09651 1.33443
C -2.10982 -4.00058 .48270
C -3.25451 -3.37709 .95028
C -.87437 -3.95409 1.28275
C .36885 -4.35386 .65939
C .45377 -4.50261 -.79900
C 1.67736 -4.20017 -1.44902
C .42995 -2.68303 2.97609
C 1.59077 -3.23990 2.46102
C -1.93343 -1.30947 3.69468
C -2.05083 -2.47177 2.91951
C -.84074 -3.15336 2.47140
C -3.25260 -2.63256 2.18479
C 1.68610 -3.32350 -2.56074
C 2.88616 -2.53244 -2.51745
C 2.86027 -1.17805 -2.92665
C 3.92311 -.39530 -2.47647
C -.66804 -3.49404 -2.72785
C .49509 -2.79260 -3.08462
C -.69838 -4.30653 -1.56142
C -2.00291 -4.17240 -.94982
C 4.41432 2.65932 -.73118
C 4.71969 1.50157 -1.41429
C .40656 -1.37610 -3.43500
C 1.59587 -.54252 -3.30901
C 3.81561 1.03335 -2.43323
C 2.61074 1.67479 -2.72992
C -1.94882 -2.90930 -2.88335
C -2.07508 -1.60143 -3.32530
C -.87844 -.77750 -3.53549
C 3.30903 3.45552 -1.17239
C -2.32587 1.24400 -3.28157
C -1.00381 .66973 -3.48479
C .15794 1.48452 -3.28296
C 1.47148 .87194 -3.20909
C 2.39676 2.98187 -2.14016
C -2.44527 2.55030 -2.83676
C -1.29929 3.35756 -2.64060
C -.00344 2.86257 -2.83980
C 1.07527 3.56448 -2.17079
C -3.47069 .39051 -3.02843
C -3.34588 -.97427 -3.03629
C -4.21301 -2.75109 .05790
C -3.93125 -2.68910 -1.33867
C -2.80917 -3.44421 -1.82074
C -4.26389 -1.52608 -2.03418
C 2.80226 4.11950 .00685
C 1.53986 4.61722 .00099
C .75238 4.53663 -1.19986
C -2.86288 3.84699 -.96003
C -1.61038 4.26075 -1.56454
C -.60135 4.73004 -.77842
C -3.90446 2.77953 .93761
C -2.93669 3.64901 .47252
C -4.48669 .75162 -2.03391
C -4.70178 1.97604 .04531
C -4.39928 1.96878 -1.34405
C -3.45397 2.92960 -1.82627
C -4.78653 -1.65548 .73060
C -5.03613 .77956 .72400
C -5.13154 -.45602 .02741
C -4.91046 -.43479 -1.38022
C -2.86777 -.23712 3.56497
C -4.43946 .84214 2.06294
C -3.98523 -.34872 2.71914
C -4.19882 -1.59569 2.07199
C -.66195 4.53366 .67774
C -1.71866 3.85814 1.28091
C -1.42035 2.99516 2.40829
C -3.71974 2.03682 2.16971
C -2.47498 2.10539 2.88025
C -2.13316 1.00209 3.65327
