100 

C -4.01683 1.75870 1.97871
C -4.33748 .39035 1.89728
C -5.03126 -.03215 .73312
C -5.07153 -1.40592 .35806
C -4.46933 -2.34842 1.17850
C -3.70162 -1.90954 2.31521
C -3.51875 -.54629 2.62552
C -2.93785 2.20986 2.76792
C -1.96590 1.29226 3.26399
C -4.18143 -2.52613 -1.63268
C -3.60362 -3.55593 -.77775
C -4.89057 -1.48135 -1.08560
C -3.77803 -3.48241 .59527
C -2.67022 -3.79798 1.44901
C -1.44679 -4.27545 .92186
C -.34613 -4.21047 1.78513
C -.30789 3.09258 3.02910
C -.59320 1.74890 3.38602
C -2.25744 -.10623 3.21453
C .18956 -.60533 3.53944
C -1.17734 -1.05527 3.41819
C -1.43245 -2.44565 3.11490
C -2.64799 -2.83946 2.51565
C -.35313 -3.31933 2.91329
C -1.82896 -.71335 -3.84912
C -3.04522 -.94685 -3.18435
C -3.24214 -2.25931 -2.69368
C -1.20202 -4.20526 -.50652
C -2.30420 -3.88600 -1.31492
C -2.12385 -3.13873 -2.52048
C .15053 -3.93902 -.99612
C -.83330 -2.78869 -2.96481
C -.76285 -1.65440 -3.80495
C -3.71808 .17883 -2.55321
C -4.68247 -.12615 -1.56643
C -1.26031 .59303 -3.90841
C -1.82313 1.68143 -3.21574
C -3.09005 1.49118 -2.53608
C -3.48955 2.45417 -1.53495
C -2.68315 3.59803 -1.33046
C .14675 .44203 -4.03913
C 1.05686 1.42649 -3.57075
C .52583 2.60711 -2.96830
C -.92298 2.75240 -2.83144
C -1.40686 3.72636 -1.96145
C 2.74132 3.04907 -2.03919
C 1.38956 3.39078 -2.12331
C 3.87803 -.80992 -2.57151
C 2.71543 -.41904 -3.23535
C 2.40956 1.00611 -3.33807
C 3.27498 1.91936 -2.71336
C 2.74968 -2.81793 -1.65125
C 1.64908 -1.38692 -3.33858
C .45344 -.93677 -3.94060
C 3.90042 -2.01214 -1.79278
C 1.61213 -2.55085 -2.49518
C .98404 -4.29892 1.29075
C 1.26219 -4.07322 -.07776
C .33511 -3.20301 -2.21902
C 2.57725 -3.56139 -.42266
C 3.51768 -3.36120 .61579
C -4.34642 2.04867 -.44550
C -4.90150 .75105 -.47365
C -2.62121 4.27843 -.06637
C -3.29653 3.74356 1.02583
C -4.16688 2.63301 .83503
C -1.26950 4.79612 .10228
C -2.57445 3.51796 2.26926
C -1.28929 3.96030 2.41393
C -.63659 4.69843 1.33865
C .83625 4.19558 -1.04477
C -.53076 4.46397 -1.07413
C .75035 4.37871 1.39087
C 1.51610 4.21850 .23115
C 4.57473 2.29489 -.80824
C 3.49672 3.23639 -.80627
C 2.80575 3.55795 .36541
C 4.95918 1.68720 .38373
C 4.15412 1.90328 1.55240
C 3.08888 2.79398 1.56346
C 5.33238 -.44683 -.77176
C 4.78074 .14816 -1.97044
C 4.45848 1.49055 -2.00658
C 5.40213 .30791 .39532
C 4.62607 -1.61641 1.71963
C 4.59518 -2.42200 .49831
C 4.83952 -1.81549 -.71620
C 4.93754 -.27601 1.64565
C 1.81081 -3.70165 2.29741
C 3.54747 -2.04087 2.55959
C 3.05953 -3.26690 1.97978
C .94440 3.43945 2.49573
C 2.01363 2.54412 2.51124
C 1.82584 1.24885 3.09563
C .49153 .81340 3.44491
C 4.08748 .67342 2.30795
C 2.90703 .28595 2.96828
C 2.63813 -1.11823 3.13054
C 1.27853 -1.55806 3.42047
C .97435 -2.90706 3.16382
