100 

C -.58917 -4.56414 -.73836
C -1.44802 -4.36487 .34140
C -2.77250 -3.93555 .02114
C -3.62276 -3.27489 .99767
C -3.11437 -2.98001 2.23176
C .83186 -4.58150 -.56764
C 1.42067 -4.19177 .63614
C .53642 -3.80853 1.74348
C -.86838 -3.98674 1.61734
C -1.72959 -3.31468 2.54554
C 2.38975 -2.51098 2.72507
C 1.03021 -2.86430 2.73665
C 3.29143 -2.94462 1.66605
C 2.80047 -3.69758 .58318
C 3.42585 -3.48896 -.66996
C -4.04503 .60826 2.54730
C -4.26053 -.73547 2.21180
C -3.41529 -1.69550 2.84922
C .13464 -1.97133 3.40052
C -1.23971 -2.30307 3.36476
C -2.26708 -1.29664 3.55079
C .52191 -.60876 3.69705
C -1.90689 .06949 3.67647
C -2.87337 1.00358 3.27241
C -4.79433 -1.05122 .88194
C -4.43782 -2.29322 .29345
C -4.37552 1.68851 1.63049
C -4.89873 1.39935 .38460
C -5.08667 .00536 -.00402
C -3.38956 2.71067 1.76194
C -4.45538 2.13971 -.75358
C -3.46618 3.13818 -.65096
C -2.92396 3.43950 .66278
C .57048 4.11287 1.89717
C -.77294 3.76894 1.94019
C -1.61811 4.08412 .79593
C -1.00924 4.58327 -.36023
C 2.82218 -1.26980 3.21040
C 1.88756 -.25482 3.57385
C -.50937 .45020 3.71795
C 2.27757 1.13324 3.38071
C 1.25442 2.14143 3.25984
C -.15144 1.78694 3.40229
C -1.15641 2.69705 2.85589
C -2.47823 2.29545 2.81933
C 1.57364 3.34513 2.61118
C -4.49012 1.22786 -1.88381
C -4.79318 -.10034 -1.39504
C -4.12731 -1.23616 -1.90867
C -4.08830 -2.36689 -1.07047
C -3.59681 1.37520 -2.91131
C -2.70034 2.50500 -2.92339
C -1.44352 4.11721 -1.66811
C -2.64279 3.39620 -1.82897
C -2.87845 .22255 -3.42208
C -3.06423 -1.05908 -2.90845
C -1.95303 -1.99130 -2.99418
C -2.03267 -3.21907 -2.21156
C -3.05385 -3.37274 -1.23381
C -.88142 -3.97558 -2.01819
C -1.58963 .66966 -3.83035
C .84800 .47758 -3.66830
C -.47185 -.15322 -3.79514
C -.67118 -1.54897 -3.47033
C 3.20927 .22489 -3.11826
C 1.99762 -.36729 -3.51578
C 1.84227 -1.80438 -3.33760
C .50956 -2.38450 -3.28287
C .35694 -3.61935 -2.64442
C -.29149 3.81683 -2.43036
C -.26564 2.67184 -3.26001
C -1.49762 2.08571 -3.56147
C 2.13917 2.38395 -2.69773
C .94481 1.87149 -3.33944
C 3.25188 1.56072 -2.64339
C 1.40494 -4.17899 -1.83835
C 2.65808 -3.64095 -1.89209
C 2.90734 -2.51547 -2.74589
C 4.77085 .34538 -1.36581
C 4.22434 -.50876 -2.40700
C 4.05458 -1.84570 -2.18813
C 4.90696 .75889 1.00523
C 5.00982 -.16264 -.05987
C .87417 4.20554 -1.66235
C 2.96453 3.51958 -.58121
C 2.06749 3.49741 -1.73618
C 4.48043 2.09733 .79253
C 4.03466 2.52418 -.48124
C 4.22716 1.63515 -1.55622
C 3.76589 2.52485 1.98878
C 2.79691 3.49155 1.89118
C 2.50641 4.11162 .60692
C 1.17741 4.63403 .70722
C .40463 4.77252 -.43067
C 4.06021 -.95755 2.52758
C 4.39750 .34441 2.31008
C 3.55448 1.39891 2.83334
C 4.32924 -2.40712 -.86638
C 4.73347 -1.58118 .20305
C 4.28504 -1.95695 1.49962
