100 

C 2.08182 3.34550 -2.38968
C 3.12522 2.40917 -2.37544
C 4.03816 2.49508 -1.29195
C 4.87869 1.37576 -.91764
C 4.80356 .20156 -1.63287
C .82079 3.05071 -3.03355
C .55827 1.80475 -3.57031
C 1.63836 .79980 -3.57769
C 2.91254 1.12502 -3.02866
C 3.79643 .06168 -2.67931
C -.04616 -.91299 -4.09050
C 1.28515 -.59051 -3.73716
C -1.51667 3.37327 -2.29468
C -.20816 3.82628 -2.39671
C -3.90368 2.00272 -1.57565
C -3.09295 1.44564 -2.62741
C -1.87222 2.13004 -2.98134
C -.83907 1.40523 -3.66186
C -1.10520 .08817 -4.06687
C 5.02948 .12597 1.19221
C 5.07402 -1.11852 .43124
C 4.92648 1.33145 .53469
C 4.90846 -1.07392 -.94854
C 3.99650 -1.97615 -1.57339
C 4.38955 -2.12045 1.18330
C 3.52145 -3.04756 .57228
C 3.29944 -2.95085 -.86136
C 1.45350 -2.82557 -2.62897
C 2.06557 -3.48214 -1.46346
C -2.12398 -3.77485 -2.06974
C -.71738 -3.94973 -2.11283
C -.12172 -4.49700 -.96550
C 1.26768 -4.29413 -.67627
C 2.07448 -1.62099 -3.14438
C 3.35579 -1.26782 -2.67443
C .09496 -3.09103 -2.96117
C -.59947 -2.15686 -3.79559
C 2.96656 -1.99303 3.16738
C 4.24754 -.09262 2.37521
C 4.03388 -1.51560 2.46090
C 2.24164 -3.15049 2.69286
C 1.42074 -4.32881 .76972
C 2.49106 -3.66031 1.40525
C 2.02967 -1.07199 3.75069
C 2.09786 .30483 3.49978
C 3.25151 .82157 2.78358
C 3.14589 2.08897 2.08870
C 4.03709 2.33986 1.03601
C .81856 2.40965 2.99328
C 1.91416 2.87834 2.16986
C 1.66467 3.87881 1.17481
C .38341 4.48290 1.10530
C -.34087 .38571 3.87876
C .87347 1.07158 3.57702
C -1.56449 1.09367 3.80939
C -1.62656 2.40182 3.36331
C -.44710 3.06820 2.90785
C -.64422 4.11044 1.96750
C .13426 -4.37898 1.33901
C -.18597 -3.57910 2.47069
C .89729 -3.02971 3.16574
C .76962 -1.75321 3.81474
C -1.62173 -1.72732 3.29106
C -.42285 -1.06269 3.81523
C 2.46415 3.91458 -.04310
C 3.62760 3.14101 -.09593
C -.22875 4.83846 -.17050
C .44030 4.58599 -1.33212
C 1.83261 4.19600 -1.28072
C -1.64263 4.54896 -.08511
C -2.31059 3.84629 -1.15201
C -3.47195 3.16559 -.82625
C -2.93140 2.59824 2.72643
C -3.04912 3.42808 1.59495
C -1.92405 4.24046 1.24934
C -3.90150 3.00352 .53705
C -3.64630 1.37169 2.80666
C -4.64478 -.45718 1.55920
C -4.49891 .94598 1.75139
C -4.61870 1.78560 .61377
C -2.52435 -3.31928 1.57245
C -1.49303 -2.93915 2.55900
C -3.68526 -2.56453 1.50040
C -3.86585 -1.37598 2.29209
C -2.83955 -.93482 3.17031
C -2.81162 .42640 3.48392
C -3.95929 -2.95088 -.90907
C -2.83071 -3.86635 -.84593
C -2.13919 -4.08261 .37364
C -.82343 -4.54849 .26599
C -4.41113 -2.36161 .25482
C -2.04011 -1.96991 -3.69958
C -3.86652 -2.18205 -2.10550
C -2.78642 -2.76082 -2.87888
C -4.64762 1.19713 -.72518
C -4.88601 -1.02363 .23091
C -4.72573 -.22647 -.92090
C -4.11367 -.78866 -2.09597
C -3.28867 .06949 -2.95268
C -2.31701 -.55163 -3.77441
