100 

C -1.72394 -3.83006 -2.01117
C -2.80841 -2.96826 -2.18362
C -3.77392 -2.95127 -1.13337
C -4.70241 -1.85110 -.97639
C -4.65123 -.79139 -1.85364
C -.45118 -3.56264 -2.61970
C -.21157 -2.38684 -3.30178
C -1.32877 -1.45067 -3.49685
C -2.62193 -1.77638 -2.99102
C -3.58076 -.73115 -2.84404
C .31276 .27686 -4.06929
C -1.03001 -.07176 -3.79527
C 1.87387 -3.66488 -1.70240
C .57356 -4.19607 -1.80808
C 4.19932 -2.16572 -1.12281
C 3.41662 -1.80723 -2.28296
C 2.22975 -2.54078 -2.56079
C 1.18223 -1.93299 -3.38697
C 1.40007 -.67048 -3.90506
C -5.06987 -.31356 .91504
C -5.15682 .79868 -.03296
C -4.83640 -1.59718 .45171
C -4.88494 .56223 -1.37597
C -3.98359 1.42420 -2.06631
C -4.61213 1.95690 .59449
C -3.77287 2.85400 -.09680
C -3.41395 2.54771 -1.46876
C -1.91110 .97675 -3.40156
C -3.21269 .61206 -2.99662
C .79982 1.55703 -3.81864
C -.00387 2.54858 -3.18575
C -1.39163 2.27063 -2.99506
C -2.15883 3.05822 -2.03639
C -1.50098 4.06117 -1.34247
C -3.34023 2.24866 2.65983
C -4.39388 .13430 2.08293
C -4.30012 1.57802 1.96832
C -2.69814 3.40472 2.07593
C -1.83237 4.35852 .04677
C -2.87970 3.69242 .69610
C -2.35594 1.51071 3.42396
C -2.28771 .08707 3.36795
C -3.35208 -.62525 2.67574
C -3.10506 -1.95483 2.18672
C -3.91522 -2.43640 1.13707
C -.83768 -1.94458 3.21904
C -1.82132 -2.61173 2.44911
C -1.44080 -3.77089 1.61669
C -.15109 -4.27013 1.70173
C .11769 .30967 3.83734
C -1.03631 -.53326 3.60235
C 1.39996 -.28434 3.89204
C 1.58714 -1.69729 3.68035
C .50814 -2.50985 3.30676
C .82668 -3.66931 2.55830
C -1.19572 2.29637 3.45817
C 2.03199 3.99614 1.35985
C 1.02447 3.60972 2.24244
C 1.23850 2.41138 3.04705
C .07665 1.71262 3.58877
C 2.47335 1.71003 2.94153
C 2.54311 .39266 3.47833
C -1.40814 3.48590 2.64729
C -.62742 4.68634 .72185
C -.33430 4.08671 1.97276
C -2.17604 -4.04692 .37970
C -3.38450 -3.36815 .15687
C .55380 -4.81024 .54503
C -.07487 -4.79257 -.69866
C -1.48441 -4.48811 -.76571
C 1.90866 -4.43694 .64111
C 2.59242 -3.90065 -.48138
C 3.75355 -3.11034 -.21396
C 2.89583 -1.88673 3.14852
C 3.14271 -2.91405 2.21106
C 2.10012 -3.83744 1.96732
C 4.05850 -2.64061 1.15037
C 3.49305 -.59206 2.99098
C 4.34324 -.30530 1.92593
C 4.69180 -1.39535 1.05357
C 3.65930 3.34773 -.15964
C 3.24014 3.24030 1.21428
C 3.47538 2.08070 1.95925
C 4.39849 2.34182 -.71808
C 4.84176 1.24743 .09147
C 4.37023 1.06503 1.40032
C .40603 4.80982 -.27937
C 2.59892 3.99323 -.91561
C 1.71256 4.56315 .05447
C 2.22777 1.45242 -3.56673
C 4.04266 1.84360 -2.04265
C 2.88151 2.33681 -2.70529
C 2.11031 3.43227 -2.10726
C .67874 3.55343 -2.39305
C -.10714 4.32437 -1.52889
C 4.91237 -1.15038 -.35742
C 4.99962 .12373 -.81759
C 4.39703 .47723 -2.09945
C 3.59119 -.46133 -2.80536
C 2.58351 .07431 -3.62103
