100 

C 2.65489 3.11047 -2.50711
C 3.80622 2.46688 -2.12908
C 4.02356 1.11146 -2.53619
C 3.97001 -1.62412 -1.98331
C 2.91300 -1.08345 -2.74428
C 2.96203 .33880 -3.05755
C .48551 -1.14019 -3.38121
C .51136 .27386 -3.60388
C 1.74783 1.01653 -3.43661
C 1.66450 2.40505 -3.25339
C -1.91790 .31693 -3.71504
C -.72555 1.01626 -3.62806
C 1.51418 -3.01869 -2.07687
C 1.67239 -1.80954 -2.82488
C -2.23648 -3.46612 -2.26871
C -.93495 -3.08235 -2.66905
C -.77620 -1.82394 -3.37786
C -1.94538 -1.08989 -3.67529
C 1.35724 4.34295 .70668
C 2.36474 4.02188 -.23413
C 1.98802 4.01159 -1.58938
C .60118 4.02842 -1.94187
C -1.72712 3.69472 -1.20493
C -.40623 4.27094 -1.00002
C .02548 4.58538 .32106
C -3.85693 2.96815 -.21274
C -2.66854 3.67942 -.08082
C -.79047 2.37964 -3.10411
C .40110 3.04643 -2.97129
C -3.15705 .83622 -3.14640
C -3.14869 2.03040 -2.37904
C -1.93454 2.81534 -2.30417
C -4.10969 2.14696 -1.36617
C 3.49534 3.20931 .20800
C 4.32047 2.63351 -.77634
C 5.13307 1.48922 -.49850
C 3.42553 2.56212 1.50835
C 4.27771 1.50044 1.77358
C 5.19136 .98663 .79539
C -.02144 3.65125 2.44699
C 1.32719 3.68304 2.00490
C 2.20828 2.66442 2.31934
C -1.91040 2.41839 3.21599
C -.51460 2.54939 3.17333
C 1.70494 1.50062 3.05328
C -2.16373 3.89280 1.27762
C -.82678 4.26073 1.44568
C -2.74741 3.16174 2.34751
C 3.98217 -2.00202 2.36930
C 5.33953 -.43735 1.02727
C 4.57622 -.75319 2.22530
C .33015 1.39405 3.38055
C 2.53486 .32023 3.12337
C 3.85642 .40058 2.63089
C 2.69357 -2.10262 2.95663
C -.30375 .06828 3.51768
C 1.92471 -.97009 3.28721
C 4.05643 -2.96514 1.28496
C 4.57694 -2.57412 .06756
C 5.28752 -1.31494 -.05224
C 4.99134 -.79311 -1.37324
C 4.98187 .55836 -1.60752
C 2.83198 -3.73033 1.31032
C 2.16825 -4.09369 .10030
C .86239 -4.53199 .23268
C -2.53282 1.13960 3.48053
C -1.76221 -.04031 3.48646
C .46784 -1.09449 3.35551
C -1.57357 -2.39348 2.66990
C -.18028 -2.35313 2.93196
C .65083 -3.40711 2.39481
C 2.05304 -3.26786 2.39074
C .12486 -4.29326 1.44027
C 2.54096 -3.41897 -1.13766
C 3.76177 -2.74136 -1.13977
C .19450 -3.63915 -1.96695
C -.05787 -4.48850 -.87574
C -1.36463 -4.57379 -.30722
C -4.17870 -2.05182 1.49956
C -3.38515 -3.10294 1.04014
C -3.54248 -3.48054 -.31902
C -2.44425 -4.12380 -1.01824
C -3.84434 1.19015 2.94300
C -4.43968 .01847 2.48764
C -3.72971 -1.20259 2.59219
C -2.39127 -1.25531 3.04692
C -2.12518 -3.37826 1.73262
C -1.25581 -4.27406 1.11594
C -5.18495 1.14859 .44801
C -4.55017 2.36926 .91834
C -3.96836 2.41366 2.16960
C -5.17992 .01458 1.23600
C -3.96185 -.25709 -2.78595
C -4.76261 -.22242 -1.60340
C -4.91498 1.02718 -.97592
C -4.17670 -2.60108 -1.23002
C -3.38596 -2.61271 -2.46096
C -3.25089 -1.46417 -3.18532
C -4.98598 -1.28421 .62001
C -4.83897 -1.43245 -.78205
