100 

C -3.82946 -1.41756 2.24816
C -3.98007 -.01571 2.36229
C -4.80344 .61784 1.41131
C -4.66159 2.02590 1.12316
C -3.78370 2.78447 1.86201
C -2.65225 -2.07896 2.75319
C -1.55708 -1.37910 3.24112
C -1.67815 .07763 3.38683
C -2.91248 .73135 3.01156
C -2.91511 2.13032 2.82756
C .80595 .18514 3.66794
C -.48983 .85279 3.55626
C -.51308 2.26035 3.25755
C -1.71828 2.86277 2.88771
C 1.94927 .97176 3.61016
C 4.38145 -1.24837 1.94643
C -.23911 -2.03311 3.19906
C 3.22909 .44749 3.18962
C 2.23752 -1.79341 3.10789
C .93846 -1.25784 3.44003
C 3.38086 -.90770 2.89955
C -3.92184 3.11084 -.94546
C -3.08370 3.99917 -.16265
C -4.73333 2.19373 -.31832
C -3.02350 3.84575 1.22690
C -1.76006 3.91594 1.87316
C -1.87804 4.20067 -.89027
C -.64299 4.36596 -.25839
C -.58938 4.24538 1.17771
C 1.91013 2.35915 3.21629
C .70234 2.96757 2.89892
C .67526 3.93095 1.81769
C 1.84063 4.13506 1.07555
C -4.06364 -.90119 -2.27180
C -4.22438 .49057 -2.06119
C -4.92636 .88304 -.90313
C -3.16884 2.71470 -2.12658
C -3.23864 1.39144 -2.64589
C -.93069 1.70572 -3.48198
C -2.09636 .87127 -3.32807
C -1.94172 -.58378 -3.48606
C -2.93630 -1.40780 -3.00610
C .25854 1.12123 -3.98264
C -1.95939 3.42733 -2.12222
C 1.77605 4.18819 -.37547
C .56602 4.12560 -1.04412
C .49692 3.38775 -2.30686
C -.80429 2.92976 -2.76012
C 1.66978 2.76689 -2.81968
C 1.51156 1.68038 -3.74112
C -5.10202 -.05369 .17148
C -4.40931 -1.85493 -1.29550
C -4.81163 -1.42222 .00148
C -3.52675 -3.00638 -1.46067
C -3.08478 -3.76646 -.32766
C -1.85989 -4.44540 -.44489
C -2.64443 -2.73740 -2.51491
C .40664 -.32632 -4.06979
C -.60934 -1.17649 -3.69180
C -.24588 -2.45756 -3.11013
C -1.31009 -3.25394 -2.53235
C -.99845 -4.22902 -1.58952
C -4.30047 -2.13106 1.13249
C -3.46151 -3.31076 .96912
C .32143 -4.84021 .19778
C -1.02468 -4.66473 .69226
C -1.25116 -3.92146 1.87186
C -2.50972 -3.30690 2.00808
C 1.38275 -4.54442 1.00435
C .35797 -4.44460 -1.18557
C 1.41750 -3.69718 -1.70969
C 1.12122 -2.71664 -2.74831
C 1.15578 -3.81753 2.25293
C -.12311 -3.33406 2.58511
C 2.31372 -3.07420 2.52797
C 3.28041 -3.36461 1.46848
C 4.51062 -2.14772 -.22444
C 4.24636 -2.45856 1.15483
C 2.48541 .59587 -3.80147
C 1.77436 -.65181 -3.87005
C 2.15227 -1.77147 -3.11495
C 3.64968 .66902 -3.09735
C 4.15965 -.50718 -2.44415
C 3.41078 -1.70116 -2.37554
C 3.62272 -2.57140 -1.23709
C 2.62677 -3.57509 -.90506
C 2.59958 -4.06816 .41713
C 2.96583 3.57112 -.89394
C 2.93376 2.85569 -2.09850
C 3.91402 1.83254 -2.25775
C 3.11992 2.66001 2.51630
C 3.07611 3.51253 1.42776
C 4.56064 1.98571 .12091
C 3.77570 3.15020 .20490
C 4.70188 1.40208 -1.17152
C 5.08139 -.83243 -.22702
C 4.95139 -.25874 1.11427
C 4.66305 1.11699 1.30209
C 3.92132 1.45328 2.45700
C 4.93044 -.03459 -1.32953
