100 

C -.04037 .48615 -4.46241
C .01734 -.86183 -4.09382
C 1.32747 -1.45289 -3.87834
C 1.43849 -2.69842 -3.14669
C 2.68305 -3.01621 -2.56007
C 2.76048 -3.80090 -1.36183
C .24085 -3.34158 -2.63307
C .39734 -4.27611 -1.59997
C 1.63597 -4.41378 -.88713
C -2.17423 -3.16922 -1.99666
C -3.36638 -2.40886 -1.97614
C -2.35295 -.65888 -3.35378
C -1.18318 -1.47579 -3.52862
C -1.07922 -2.72748 -2.81951
C -3.42840 -1.15829 -2.60290
C -2.30805 .78393 -3.54786
C -3.09897 1.66001 -2.68541
C -1.18701 1.30892 -4.17520
C -2.65747 2.96221 -2.46838
C 3.92991 -2.00930 1.65385
C 3.35069 -3.07937 .94559
C 3.66540 -3.15776 -.42872
C 1.34752 -4.41060 .53747
C 2.09770 -3.65637 1.44168
C 1.41287 -3.04828 2.58551
C 2.10840 -2.00118 3.33342
C 3.34870 -1.51894 2.88043
C 1.35024 -1.12249 4.14832
C -.06260 -4.54172 .67282
C -2.13565 -3.78158 1.59242
C -.73918 -3.97069 1.75728
C -.00700 -3.16928 2.71305
C -.76855 -2.17568 3.48620
C -.07752 -1.20356 4.17345
C -1.93123 -4.03058 -.84471
C -.64663 -4.51129 -.64188
C -2.74212 -3.89012 .32439
C 4.26280 -2.05519 -1.10702
C 4.52122 -.91983 .97952
C 4.54930 -.85393 -.42529
C 4.32552 .26561 1.77417
C 4.03070 1.49739 1.17284
C 3.37003 2.45045 1.98303
C 3.68665 -.13396 2.99328
C 1.70661 .23077 4.33398
C 2.85406 .76330 3.69423
C 2.79560 2.10335 3.22465
C 3.60230 -.83990 -3.10569
C 3.92223 .40871 -2.42138
C 3.72877 -2.03270 -2.45465
C 4.27978 .43563 -1.07311
C 3.89826 1.59316 -.28407
C 2.58762 3.50528 1.39272
C 2.35189 3.56466 .02176
C 3.05766 2.61282 -.85439
C 2.61946 2.49487 -2.22646
C 3.11587 1.42783 -2.99121
C 1.13185 4.23731 -.43394
C .63832 4.00719 -1.78561
C 1.39262 3.15472 -2.69023
C -.72792 4.22426 -2.04994
C 1.58429 3.87079 2.36344
C .38461 4.39558 1.92866
C .22038 4.70427 .53195
C .47688 1.01440 4.41986
C .39462 2.34180 3.87589
C 1.59852 2.91839 3.41390
C 1.11539 1.34307 -4.36690
C 2.46262 -.61586 -3.94938
C 2.32437 .80731 -4.03773
C -.71462 2.63861 -3.88748
C .71944 2.60742 -3.79828
C -1.42723 3.44150 -3.03527
C -1.84409 4.05378 1.40742
C -1.20099 4.67898 .28846
C -1.66769 4.44713 -.97977
C -2.88110 3.14409 1.23630
C -3.40659 2.93048 -.10678
C -2.81013 3.60051 -1.17340
C -.59963 .14616 4.34110
C -1.84282 .52688 3.74097
C -1.98672 1.84521 3.22092
C -.86152 2.77361 3.31028
C -.84494 3.88059 2.44271
C -3.95725 1.09616 1.98547
C -3.03347 2.09831 2.24513
C -4.02836 -2.41908 1.61500
C -2.86600 -2.79545 2.37225
C -2.18767 -1.90501 3.19517
C -4.51879 -1.13359 1.71623
C -3.84904 -.19769 2.57727
C -2.70863 -.54242 3.31495
C -4.81062 -1.03379 -.72733
C -4.26629 -2.37632 -.82436
C -3.93461 -3.06634 .31819
C -4.95017 -.42380 .52277
C -4.15639 1.71872 -.40857
C -4.00211 1.08342 -1.69776
C -4.29655 -.28012 -1.81526
C -4.58939 .94313 .67518
