100 

C -1.11270 4.31264 -1.08306
C -.48191 3.65866 -2.15044
C .96960 3.69343 -2.19849
C 1.68638 2.72406 -3.00239
C 3.04054 2.47286 -2.69586
C 3.63529 1.19551 -2.95470
C .94397 1.71307 -3.73673
C 1.63944 .58695 -4.18774
C 2.98149 .29938 -3.74925
C -1.15026 .38350 -3.94883
C -2.50574 .21064 -3.63790
C -2.60797 2.38077 -2.51332
C -1.23218 2.62030 -2.86893
C -.51197 1.63089 -3.62928
C -3.24380 1.21072 -2.98745
C -2.40039 3.89074 -.60196
C -4.18137 2.29796 -.57796
C -3.18166 2.99557 -1.32049
C 4.21258 -.60832 -1.33171
C 3.64777 -1.58782 -2.27052
C 4.29552 .73294 -1.74318
C 3.09423 -1.11818 -3.48118
C 1.92515 -1.72509 -4.03942
C 1.44674 -2.91102 -3.50999
C 2.10691 -3.50708 -2.39658
C 3.17532 -2.85367 -1.76297
C 3.38440 -3.15385 -.37423
C -.37518 -.82759 -4.17537
C .98956 -.68466 -4.38636
C .03736 -3.10033 -3.35225
C -.87712 -2.10662 -3.68346
C 4.26790 1.79285 -.80884
C 3.89637 -2.20444 .50530
C 4.21255 -.87002 .08155
C 4.09314 .19093 1.03851
C 4.11292 1.55596 .57267
C 3.54090 -.10643 2.37793
C 3.03994 .94076 3.13181
C 2.56661 -3.66469 1.72968
C 3.37801 -2.48395 1.82969
C 3.09173 -1.46512 2.72733
C 1.46639 -3.80992 2.56084
C 1.24582 -2.85178 3.60820
C 1.99913 -1.66951 3.68568
C 1.08297 -4.19176 -1.60884
C 1.22645 -4.38318 -.20041
C 2.46843 -4.02132 .36164
C 3.61426 2.92438 -1.45802
C 2.97324 2.28415 2.62564
C 3.50553 2.61711 1.36899
C 2.94664 3.74882 .73214
C 2.95255 3.85719 -.71422
C 1.10925 1.91962 3.95236
C 1.78050 2.87575 3.10326
C 1.05432 3.79187 2.32271
C 1.72880 4.32126 1.19647
C -.83662 .59888 4.39690
C -.31100 1.81889 3.95902
C 1.36476 -.50494 4.29525
C 1.91623 .77043 4.03700
C .00104 -.54205 4.63439
C -.37818 4.75859 .06590
C 1.66765 4.33529 -1.15132
C .98893 4.76818 .03378
C -.41383 3.72190 2.32811
C -1.07910 4.31472 1.25644
C -1.10298 2.66381 3.07929
C -2.10806 .13593 3.92666
C -2.87125 .88027 3.04657
C -2.39657 2.21162 2.66159
C -3.04058 2.85176 1.53215
C -2.36197 3.85509 .83187
C -4.06396 2.17636 .82183
C -3.71646 -1.29233 2.08738
C -3.83466 .14532 2.21662
C -4.50393 .84550 1.20754
C -4.20680 -1.91219 .92918
C -.83049 -3.58077 2.82009
C -.18409 -2.84724 3.86580
C -.79130 -1.72130 4.37499
C -2.04009 -3.16424 2.26987
C -2.70565 -2.00784 2.84920
C -2.06772 -1.31459 3.87766
C -.16078 -3.93313 -2.17387
C -1.34416 -3.81635 -1.37781
C -1.25744 -4.04331 .02713
C .03801 -4.36816 .62041
C .20236 -4.18969 2.00438
C -3.44095 -2.97799 .29009
C -2.31305 -3.52916 .88234
C -4.19955 -.86847 -2.44060
C -3.05278 -1.09570 -3.26964
C -2.20597 -2.18393 -3.08319
C -4.45224 -1.72235 -1.37888
C -3.54427 -2.80812 -1.12477
C -2.44146 -3.06969 -1.94650
C -5.01966 .20108 .04799
C -4.78812 1.08251 -1.08287
C -4.34888 .56651 -2.27949
C -4.86028 -1.17501 -.09664
