100 

C -4.81831 .72816 -.67247
C -4.25365 -.28631 -1.47021
C -4.16761 -1.62700 -.90988
C -3.31673 -2.61396 -1.53942
C -2.98536 -3.76948 -.80365
C -1.78325 -4.51362 -1.06934
C -2.43540 -2.21431 -2.63416
C -1.39136 -3.07136 -2.98253
C -1.03600 -4.21732 -2.17353
C -4.54175 2.11853 -.89741
C -3.34503 .10336 -2.53869
C -2.32861 -.82124 -3.02207
C -3.77883 2.48870 -1.99030
C -3.16113 1.46266 -2.78657
C 2.15839 -2.93717 -3.07101
C .40923 -4.31308 -2.12573
C .89082 -3.44605 -3.15346
C 3.62729 -1.18224 -2.89463
C 2.42769 -1.61305 -3.56757
C 3.90193 .16978 -2.81029
C -1.88765 1.96261 -3.23888
C -.83109 1.11572 -3.53970
C -1.09830 -.31893 -3.56000
C .01100 -1.21584 -3.79238
C -.19006 -2.58108 -3.58036
C .51669 1.64032 -3.43970
C 1.63398 .71669 -3.64130
C 1.38211 -.71102 -3.82788
C 2.91182 1.11805 -3.26279
C 2.93307 -3.14040 -1.87888
C 2.38723 -3.75441 -.75724
C 1.09345 -4.42255 -.89974
C .29620 -4.70142 .28821
C -1.11058 -4.79078 .18782
C .82044 -4.33269 1.54221
C 3.85803 -2.02827 -1.77365
C 4.25064 -1.49227 -.53074
C 3.74886 -2.13086 .68338
C 2.85720 -3.29438 .56011
C 2.10817 -3.67064 1.66568
C 4.34236 -.07114 1.91820
C 3.78582 -1.40055 1.90652
C 4.69056 -.11871 -.50559
C 4.74823 .55994 .75348
C 4.53433 .68871 -1.65982
C -.02009 -3.83899 2.56285
C -1.40495 -3.68156 2.37022
C -1.95325 -4.31388 1.23289
C -3.16637 -3.80650 .62113
C -3.86867 -2.80828 1.23700
C .72994 -2.89253 3.35334
C .99328 -.65473 4.14538
C .12767 -1.71800 3.83508
C -1.27360 -1.43150 3.52976
C -2.05904 -2.48544 2.92061
C -3.32173 -2.15878 2.42451
C 2.86995 -1.72989 2.98316
C 2.06076 -2.86265 2.84704
C 2.36805 -.69729 3.82597
C -4.88465 .55570 .76364
C -4.52542 -1.81454 .44112
C -4.68418 -.67487 1.30349
C -4.27651 2.73827 .39658
C -4.30970 1.71765 1.40188
C -3.34660 3.74784 .49669
C .53390 .71858 4.05942
C -.75175 1.03436 3.63253
C -1.71742 -.06490 3.46022
C -2.99455 .24111 2.87778
C -3.79973 -.82388 2.44203
C -.95743 2.32380 3.01438
C -2.26190 2.61008 2.41931
C -3.27905 1.57889 2.35534
C -2.38318 3.70901 1.56035
C 1.65266 1.54319 3.77493
C 1.51878 2.70105 3.01054
C .17847 3.14085 2.68138
C 1.15242 4.50912 .85240
C .03591 4.16681 1.65702
C -1.21596 4.40968 1.09881
C 3.79707 2.21679 2.08724
C 3.82186 .96368 2.80884
C 2.81773 .67273 3.68118
C 2.46330 3.97069 1.12143
C 2.67607 3.10816 2.19304
C 4.12282 2.08940 -1.55012
C 3.12556 3.77507 -.13624
C 4.07125 2.74291 -.29364
C 4.44183 1.99654 .86230
C -1.68137 3.26121 -2.67996
C -.39772 3.68881 -2.34344
C .73472 2.91036 -2.81716
C 2.18344 4.07368 -1.17081
C 2.06307 3.23589 -2.29055
C 3.12413 2.33058 -2.51803
C -1.37002 4.68724 -.30131
C -2.68997 4.26255 -.69132
C -2.85335 3.60208 -1.89728
C 1.00440 4.62026 -.54244
C -.26290 4.52696 -1.15546
