100 

C -2.94675 -2.04224 -2.78724
C -3.66549 -.85419 -2.62914
C -4.68443 -.85670 -1.64300
C -5.18553 .38251 -1.07699
C -4.66937 1.57661 -1.52233
C -1.62191 -2.04776 -3.35110
C -.91152 -.87470 -3.56849
C -1.61907 .39754 -3.38482
C -3.01058 .39110 -3.00002
C -3.59271 1.58096 -2.50800
C .60631 1.54196 -3.34959
C -.85104 1.59536 -3.24162
C -1.44959 2.74876 -2.63579
C -2.80131 2.71227 -2.27084
C 1.33126 2.67193 -3.00008
C 2.70058 .22112 -3.04741
C 2.57295 -2.21721 -2.95571
C 1.19831 -2.20229 -3.27860
C .55732 -.94265 -3.54386
C 1.31477 .26923 -3.43442
C 3.29974 -1.02967 -2.82823
C -5.10766 1.15734 1.25175
C -4.57209 2.41994 .78349
C -5.44497 .16937 .33488
C -4.41684 2.65215 -.58516
C -3.27392 3.36620 -1.04899
C -3.51109 2.79880 1.66586
C -2.41345 3.52707 1.23021
C -2.33013 3.89195 -.16468
C .72013 3.79602 -2.32278
C -.62980 3.76019 -1.99303
C -1.04401 4.29141 -.71465
C -.05928 4.69610 .18989
C -4.51997 -1.57702 1.79475
C -4.11028 -.54321 2.73193
C -5.13551 -1.22235 .61386
C -4.37213 .79359 2.45370
C -3.34626 1.76057 2.67150
C -2.06586 1.40377 3.13953
C -1.18181 3.42544 2.00549
C -.10013 4.16291 1.55371
C .17938 -4.59878 -.75316
C -1.18728 -4.27957 -.67103
C -4.68632 -1.84652 -.62001
C -3.49162 -2.60332 1.79364
C -3.07750 -3.27374 .63028
C -3.73166 -2.89230 -.62480
C -1.76014 -3.87171 .61599
C -2.53378 -2.23730 2.77119
C -1.23373 -2.69938 2.72725
C -.87279 -3.66262 1.72016
C 1.47080 -3.45858 2.49969
C .53473 -4.04844 1.62370
C 1.03357 -4.57009 .41827
C -.94437 2.29173 2.86583
C -1.81524 .03105 3.46646
C -2.84564 -.90797 3.27057
C 1.08283 -2.32897 3.33630
C -.21600 -1.86603 3.36416
C .39397 1.86231 3.12109
C .64474 .46225 3.49594
C -.44727 -.45186 3.56092
C -3.02583 -3.08141 -1.82634
C -1.78507 -3.81267 -1.85899
C 2.33122 -4.11889 -1.44120
C .95832 -4.24050 -1.88098
C .41609 -3.34617 -2.84014
C -.97424 -3.24375 -2.87563
C 3.14029 -3.18237 -2.02156
C 4.15087 -2.50212 -1.23256
C 4.77522 -1.62189 .92363
C 4.23464 -2.69067 .17388
C 2.36590 -4.30891 .00150
C 2.82297 -3.27816 2.13034
C 3.26484 -3.58546 .81624
C 4.93402 .65709 1.30947
C 5.12056 -.38729 .31464
C 4.77815 -.12942 -1.03564
C 4.32143 -1.21765 -1.79637
C 4.68062 1.93859 .91397
C 3.30084 -2.08896 2.81938
C 4.23298 .11042 2.43245
C 4.28257 -1.31924 2.26724
C 2.10953 4.38482 .95128
C 1.21797 3.86289 1.96473
C 1.49976 2.68027 2.67764
C 3.33124 3.79394 .76665
C 3.74538 2.73655 1.65509
C 2.84382 2.12806 2.55440
C 3.09298 .76213 2.95151
C 1.99382 -.05291 3.44599
C 2.18055 -1.44862 3.46403
C 2.94569 3.68289 -1.65600
C 1.69574 4.39935 -1.47105
C 1.30945 4.79999 -.19019
C 3.79506 3.47126 -.58068
C 4.37915 1.22084 -1.43765
C 3.36768 1.38499 -2.47429
C 2.70960 2.60639 -2.57388
C 4.54805 2.25816 -.50402
