100 

C 4.65516 .92447 -.14319
C 4.48695 -.30814 .47648
C 4.39557 -1.50077 -.37044
C 4.54539 1.07651 -1.57084
C 4.30445 -.02413 -2.35001
C 4.35160 -1.33172 -1.76418
C 3.85937 2.31324 -1.84318
C 3.21853 .00906 -3.30891
C 2.40227 1.12677 -3.44616
C 2.77905 2.35855 -2.73676
C .50372 3.21814 -3.12654
C 1.77312 3.38845 -2.52524
C 1.82186 4.19932 -1.37263
C 3.82165 -2.72437 .17693
C 3.42863 -2.73062 1.53178
C 3.49524 -2.16574 -2.58313
C 2.95616 -3.31226 -2.07036
C 3.16901 -3.63880 -.67564
C 2.69000 -1.31514 -3.42491
C 1.31204 -1.55120 -3.60380
C 1.02755 .89890 -3.85160
C .16438 2.02328 -3.81949
C 1.13896 -4.50819 -1.36599
C 2.02463 -4.37135 -.23262
C 1.50236 -4.19735 1.06889
C 2.30844 -3.47058 1.96858
C -.21217 -4.61320 -1.15652
C .45087 -.42334 -3.84896
C .76122 -2.80671 -3.12314
C 1.62295 -3.69974 -2.44089
C -1.11417 -3.93144 -2.02529
C -1.00280 -.59392 -3.72430
C -.66226 -2.92962 -2.90950
C -.74790 -4.56685 .19136
C .04672 -4.22305 1.28317
C -.56011 -3.43612 2.36540
C .32823 -2.77512 3.31272
C 1.72666 -2.78682 3.09998
C -.16568 -1.72437 4.10179
C -2.09648 -4.11527 .08107
C -3.85244 -2.63664 .74680
C -2.70222 -3.38008 1.10734
C -1.91573 -2.99035 2.25999
C -2.37661 -1.82664 3.03025
C -1.51480 -1.25660 3.94427
C -3.26572 -2.79743 -1.63218
C -2.33949 -3.77266 -1.28897
C -4.18234 -2.41601 -.60877
C -1.24346 1.86653 -3.76067
C -1.83696 .58073 -3.74208
C -1.55443 -1.82117 -3.22000
C -3.15434 .52610 -3.25267
C -3.70023 -.68798 -2.76089
C -2.91058 -1.84271 -2.67795
C .65441 -.61867 4.47795
C 1.95893 -.48516 3.95315
C 2.50979 -1.63735 3.36133
C 3.52373 -1.54009 2.35144
C 3.40430 .91327 2.44343
C 3.93589 -.31455 1.83832
C -.20957 .53256 4.62537
C .26897 1.78276 4.30851
C 1.62751 1.94238 3.81275
C 2.44695 .81787 3.51858
C 3.51950 2.15900 1.71231
C 4.19113 2.15306 .46346
C -4.28420 -1.48177 1.51561
C -3.48937 -.99157 2.55630
C -2.35982 1.03166 3.52518
C -1.53568 .16400 4.24285
C 1.63836 3.08650 2.99193
C 2.58880 3.23517 1.95879
C 2.23518 4.11728 .90462
C 2.83225 3.99613 -.37881
C 3.81914 3.03810 -.58994
C .27662 3.55564 2.82938
C -3.54569 2.52351 1.42390
C -2.35510 3.00841 1.96356
C -1.48971 3.79892 1.12318
C -.15377 4.10549 1.61942
C .86401 4.50219 .70723
C -5.01144 -.62159 .64291
C -4.93672 .75733 .82355
C -4.15077 1.27661 1.88701
C -3.45243 .44040 2.76913
C -1.84709 2.34371 3.16055
C -.57483 2.70123 3.60993
C -4.68917 1.08959 -1.59067
C -4.71809 -.35067 -1.77332
C -4.92581 -1.17952 -.69335
C -4.77829 1.63338 -.32466
C -1.77580 2.92703 -2.98220
C -2.93775 2.74823 -2.19978
C -3.72807 1.62835 -2.52040
C .60976 4.55259 -.68083
C -1.76082 3.89243 -.28880
C -.66879 4.23128 -1.20340
C -.68755 3.72765 -2.51905
C -3.87310 2.70297 .05934
C -2.94253 3.26528 -.83295
