100 

C -2.08622 3.28965 2.58428
C -2.63936 3.35917 1.30734
C -1.86948 3.99740 .24557
C -.76399 3.77791 2.85340
C -.06483 4.42376 1.86873
C -.64482 4.57001 .56474
C -.07925 2.83711 3.70613
C -2.08288 3.59427 -1.14296
C -3.23297 2.87289 -1.42363
C .44401 4.62064 -.39088
C .32643 4.06516 -1.67784
C -.97242 3.52869 -2.07932
C -1.03587 2.58946 -3.14606
C .17588 2.19437 -3.79982
C 1.65793 4.50427 .35239
C 2.77279 3.94248 -.23507
C 2.74735 3.59544 -1.61025
C 1.53318 3.61620 -2.33124
C 1.41232 2.69237 -3.42603
C 1.34683 4.17409 1.71741
C 1.96495 3.08478 2.36193
C 1.21999 2.38534 3.39694
C -2.17049 1.71527 -3.30526
C -3.31496 1.99561 -2.54774
C -4.30534 .99676 -2.25728
C -1.98114 .35193 -3.79974
C -2.95985 -.59176 -3.51801
C -4.12864 -.28409 -2.74166
C .36041 .81849 -4.24263
C -.62394 -.13262 -4.10343
C -.22789 -1.51695 -3.80824
C -1.26023 -2.42562 -3.37097
C -2.59625 -1.97347 -3.24091
C -.90731 -3.55266 -2.61372
C 1.74842 .49755 -4.11698
C 3.38984 -.91543 -3.07615
C 2.15467 -.80620 -3.73348
C 1.14273 -1.83189 -3.53847
C 1.47865 -2.98308 -2.69704
C .45202 -3.81836 -2.28337
C 3.71296 2.51298 -1.78859
C 3.54827 1.53890 -2.81933
C 2.41533 1.65266 -3.65922
C 4.06553 .24751 -2.58654
C -4.98841 .09362 -.07111
C -4.78956 -1.24939 -.58816
C -4.76648 1.20043 -.89378
C -4.40794 -1.43233 -1.89735
C -3.43469 -2.46010 -2.21371
C -2.91241 -3.32628 -1.20749
C -1.72089 -3.97703 -1.51837
C -3.68303 2.39951 .97164
C -3.90133 1.24811 1.81975
C -4.09072 2.33579 -.36780
C -4.52240 .11891 1.27104
C -2.68310 -.29802 3.40575
C -3.06968 1.05056 3.00146
C -2.29491 2.12797 3.42950
C -1.57358 -.44214 4.23403
C -.72663 .66620 4.56354
C -1.08837 1.93361 4.18354
C -4.05422 -1.22480 1.61035
C -2.22042 -2.59901 2.44111
C -3.07315 -1.44475 2.57711
C .02031 -3.53415 2.96310
C -1.04663 -2.68728 3.30776
C -.73192 -1.61070 4.15611
C -3.21847 -3.05010 .20234
C -4.16409 -2.04317 .46427
C -.85279 -4.49103 -.48722
C -1.11690 -4.22475 .87662
C -2.26968 -3.38596 1.23477
C -.01665 -4.30847 1.74252
C 2.18328 -3.78229 2.20566
C 1.36541 -3.17117 3.22567
C 1.67145 -1.88207 3.72871
C .61638 -1.18841 4.32032
C 3.30347 -3.13630 1.76665
C .46983 -4.47898 -.98737
C 1.57824 -4.37029 -.13058
C 1.31440 -4.44073 1.25635
C 4.52967 -1.50702 -1.14568
C 3.66366 -2.00923 -2.16666
C 2.71956 -3.00007 -1.90557
C 4.46500 -2.03009 .12313
C 3.66552 -3.18520 .36394
C 2.75958 -3.66144 -.60656
C 4.17090 2.12542 -.51860
C 4.54855 .79138 -.23013
C 4.67047 -.08342 -1.32337
C .64287 .25014 4.43399
C 1.58975 1.02308 3.75333
C 2.76832 -1.11297 3.14521
C 2.68870 .33155 3.05168
C 3.42512 1.01858 2.03120
C 3.07758 2.41503 1.69629
C 3.52114 2.94213 .48151
C 3.62418 -1.80400 2.27265
C 4.34431 -1.12843 1.26666
C 4.23997 .26159 1.10046
