100 

C -3.60319 -1.78436 -2.45860
C -3.67554 -.41782 -2.71602
C -4.54492 .36642 -1.84997
C -4.31796 1.79102 -1.66720
C -3.35543 2.41669 -2.38710
C -2.52851 1.66345 -3.33083
C -2.56995 .21702 -3.38509
C -2.47121 -2.53423 -2.84961
C -1.31031 -1.91547 -3.36497
C .08576 3.94804 2.27009
C -1.18419 3.95855 1.68143
C -4.49039 2.11744 -.26544
C -2.52615 3.44331 -1.77662
C -2.53673 3.69232 -.39169
C -3.60460 3.03970 .38900
C -1.30161 4.11164 .23421
C -1.33144 3.47343 -2.50861
C 1.06708 3.51665 -2.63715
C -.13652 3.91565 -1.93992
C -.09420 4.24658 -.54844
C 1.22806 4.28183 .10737
C 1.27749 4.20011 1.50070
C -.03252 -3.82571 -2.43360
C -.03017 -2.58736 -3.17456
C -1.35635 -.50798 -3.64798
C 1.15526 -.46812 -3.70388
C -.09775 .20931 -3.84398
C -.12524 1.65981 -3.79585
C -1.34418 2.34556 -3.46640
C 1.04007 2.37584 -3.55814
C -3.41674 2.85317 1.75591
C -2.19958 3.28915 2.39663
C .41075 3.02197 3.30299
C -.53074 2.07713 3.73135
C -1.87156 2.34740 3.39911
C 1.29982 .39970 3.85378
C -.10798 .70091 3.95726
C 1.67964 -.93696 3.79073
C 3.46202 3.12124 1.46227
C 2.36071 3.54627 2.17824
C 1.81415 2.69570 3.18797
C 4.03801 1.84167 1.73184
C 3.44894 .94916 2.63057
C 2.26840 1.38892 3.37238
C 2.30199 3.54199 -2.02738
C 2.42850 3.90505 -.62982
C 3.52418 3.36497 .05730
C -3.86045 1.65876 2.41424
C -4.57325 .66926 1.71686
C -4.94103 .94994 .36707
C -4.34435 -.69189 2.08897
C -2.85876 1.30131 3.37879
C -1.07997 -.35414 3.83730
C -2.48124 -.02689 3.56905
C -3.32140 -1.02257 2.98827
C .72268 -1.96677 3.64425
C -.63812 -1.69904 3.57259
C -4.45777 -1.77802 1.10896
C -4.72345 -1.50343 -.24999
C -4.98817 -.13447 -.63221
C -4.14503 -2.35164 -1.21830
C -1.46910 -2.65187 2.81698
C -2.79019 -2.31745 2.60942
C -3.52362 -2.78112 1.46431
C -.84402 -3.63578 1.92041
C -2.90031 -3.59758 .50281
C -3.33014 -3.44431 -.84351
C 1.33563 -3.06883 2.92272
C .60456 -3.81789 1.97976
C -1.55488 -4.08711 .77828
C -.81044 -4.61056 -.34623
C -1.20623 -4.25746 -1.70534
C -2.39595 -3.66142 -1.93748
C 4.21863 -2.69694 -.51351
C 3.18716 -3.64261 -.68791
C 2.30164 -3.54634 -1.79136
C 1.05321 -4.20589 -1.66241
C 4.43760 -1.74042 -1.49857
C .56965 -4.65362 -.34242
C 1.31536 -4.32495 .83638
C 2.66987 -3.98505 .64669
C 2.69904 -2.72937 2.71563
C 4.27034 -2.31000 .88711
C 3.36829 -3.19137 1.58931
C 4.65669 1.38102 .49237
C 4.85282 -.41085 -1.11619
C 4.83490 -.01387 .22678
C 4.43500 -.97349 1.26384
C 3.71958 -.48629 2.45590
C 2.91178 -1.37304 3.15453
C 3.11462 2.47513 -2.60664
C 4.38557 .48326 -2.14682
C 4.12161 1.83857 -1.86002
C 4.34945 2.29627 -.52003
C 2.39630 -2.44056 -2.70067
C 1.18608 -1.88199 -3.30933
C 3.54603 -1.63338 -2.59507
C 3.53300 -.25820 -3.01823
C 2.37507 .31670 -3.57467
C 2.29231 1.72789 -3.48860
