100 

C 3.95237 1.10777 2.30176
C 3.95126 -.28922 2.44256
C 4.66178 -1.02389 1.46158
C 4.37996 -2.41937 1.22499
C 3.42727 -3.05322 1.99377
C 2.86296 1.91800 2.82197
C 1.71842 1.32655 3.41404
C 1.69505 -.11303 3.58962
C 2.83650 -.91961 3.14131
C 2.64672 -2.28611 2.94621
C -.69919 .04855 4.00769
C .43767 -.75446 3.79722
C .37096 3.27621 2.57108
C .50701 2.09134 3.40544
C -3.34999 3.01065 1.86136
C -2.16513 2.99315 2.63081
C -1.99048 1.88302 3.48140
C -.66467 1.43926 3.84804
C 3.51754 -3.53619 -.78911
C 2.60128 -4.29290 .04242
C 4.41130 -2.64105 -.21146
C 2.54377 -4.03967 1.39812
C 1.24840 -3.90850 2.03757
C 1.36390 -4.44391 -.69872
C .09383 -4.46479 -.05599
C .03784 -4.14826 1.35968
C .20357 -2.11443 3.36061
C 1.32808 -2.87044 2.99546
C -2.02413 -.41553 3.68611
C -2.23993 -1.63056 3.05768
C -1.09026 -2.52582 2.88612
C -1.15591 -3.56626 1.90165
C -2.34923 -3.71707 1.14745
C 3.97342 -.99384 -2.00431
C 2.98998 -1.90005 -2.56503
C 4.66325 -1.39090 -.84537
C 2.81936 -3.15627 -1.96944
C 1.51336 -3.79106 -1.93459
C .39494 -3.24403 -2.60844
C .56622 -2.01832 -3.34338
C 1.87555 -1.36973 -3.34872
C 1.94083 -.04724 -3.74230
C -1.86232 -1.80483 -3.43783
C -.59418 -1.24854 -3.66741
C -2.31037 -4.10412 -.20047
C -1.05424 -4.25240 -.86417
C -.90241 -3.66243 -2.17569
C -2.02521 -3.02259 -2.75529
C 2.97980 .84409 -3.27493
C 3.89664 .43650 -2.29845
C 4.33799 1.41500 -1.31727
C 2.44006 2.16563 -3.30510
C 2.87713 3.09994 -2.39531
C 3.84310 2.73043 -1.41056
C -.36929 4.46345 -1.21161
C 1.90531 4.00257 -1.79515
C .52511 3.93640 -2.13929
C -.52273 .19175 -3.80985
C .74881 .73679 -3.96353
C 1.02339 2.08222 -3.64566
C -1.30643 2.37094 -2.91857
C .04540 2.88555 -3.03851
C -1.60081 1.04307 -3.36070
C 4.77191 .95265 -.00303
C 4.94832 -.41982 .20377
C 3.54081 3.51657 -.22687
C 3.78516 3.00293 1.01695
C 4.46237 1.73508 1.14372
C 2.30550 4.24783 -.46455
C 1.33198 4.41065 .56163
C .03167 4.69641 .14050
C 1.50555 3.72101 1.83245
C 2.76125 3.07830 2.05315
C -.97541 3.71239 2.16404
C -1.09903 4.45873 .99108
C -2.24271 4.29642 .11756
C -4.05490 2.77253 -.36209
C -3.35424 3.62251 .54778
C -3.96341 -1.74888 -2.45797
C -3.01974 -.96380 -3.19667
C -2.88516 .41906 -3.01817
C -4.79630 -1.12600 -1.54882
C -4.76734 .30100 -1.44089
C -3.81367 1.08426 -2.13094
C -3.46722 2.38618 -1.58781
C -2.24795 3.04620 -2.01248
C -1.76384 4.09420 -1.21758
C -4.24434 -2.83247 .13454
C -3.47456 -3.54908 -.86512
C -3.33397 -3.01738 -2.13062
C -4.94353 -1.68593 -.20612
C -4.26111 -.60544 1.91970
C -3.44091 -1.76804 2.22118
C -3.50417 -2.86406 1.35671
C -5.00874 -.60355 .72232
C -4.74754 1.81072 .45695
C -4.21707 1.87752 1.80473
C -3.91215 .68899 2.50151
C -2.83167 .75062 3.40660
C -5.11329 .61015 -.07154
