100 

C 3.66431 -1.33183 -2.23981
C 4.59926 -.43515 -1.65317
C 1.39189 -2.91701 -2.86456
C 1.43262 -1.62713 -3.35067
C 2.61843 -.80134 -3.05874
C 2.52848 .62472 -3.22958
C 1.35108 1.16137 -3.81299
C .14134 -3.56514 -2.54901
C -1.09048 -2.91758 -2.69280
C -1.10337 -1.60392 -3.33112
C .15579 -1.01986 -3.71886
C .18440 .32864 -4.08570
C -3.43191 -1.24873 -2.44568
C -2.27586 -.77610 -3.22692
C -2.18703 .62082 -3.55698
C -.96200 1.12911 -4.03483
C -4.39344 -.31131 -2.04052
C -3.36588 -2.50082 -1.72364
C -2.18437 -3.33858 -1.84393
C -4.19407 -2.67823 -.59167
C -1.91616 -4.26470 -.81056
C 3.35541 1.51580 -2.47716
C 4.44271 .95859 -1.76216
C 4.98354 1.58252 -.56002
C 2.81035 2.78954 -2.03232
C 3.30112 3.34251 -.81101
C 4.38645 2.72173 -.07101
C -.51946 2.48896 -3.75507
C .91238 2.45383 -3.52633
C 1.52380 3.19967 -2.46636
C -1.30587 3.31654 -3.00846
C -.72771 4.02096 -1.87533
C .65787 3.93850 -1.56879
C -2.63751 2.89335 -2.63936
C -4.17412 1.10990 -2.20974
C -3.10762 1.58638 -2.96238
C 5.09108 .60413 1.69072
C 4.35928 1.75384 2.18348
C 5.41257 .52928 .33919
C 4.07482 2.82332 1.33922
C 2.81995 3.49482 1.45001
C 3.33195 1.28016 3.06018
C 2.10349 1.91783 3.16872
C 1.85048 3.09843 2.37082
C 1.03720 4.10305 -.20787
C 2.40180 3.89137 .11548
C -1.69511 4.07652 -.86971
C -1.34264 3.99746 .50604
C .04718 4.02953 .84686
C .47261 3.52282 2.14188
C -.48841 3.01511 2.99702
C 4.90696 -1.87272 .30865
C 4.49964 -1.78837 1.70111
C 5.24496 -.72369 -.37296
C 4.53797 -.56735 2.35517
C 3.40973 -.16800 3.13293
C 2.24658 -.95902 3.23176
C .97984 1.12985 3.64933
C -.23605 1.78647 3.74498
C 2.39973 -3.41351 -1.96289
C 3.51295 -2.63737 -1.61993
C 4.06916 -2.86373 -.32964
C 3.24369 -3.42897 .67251
C 2.03371 -4.05511 .35935
C 1.76101 -4.25864 -1.01358
C -.58429 -4.68754 -.52873
C .40176 -4.45650 -1.45721
C .98959 -.31017 3.57001
C 2.23544 -2.25196 2.60700
C 3.38082 -2.65135 1.88773
C -.30996 -4.41576 .88459
C .92640 -3.93045 1.30241
C -.24523 -1.02491 3.46010
C -.25783 -2.35628 2.83317
C .96232 -2.91922 2.34092
C -2.49028 1.95150 3.37667
C -1.44622 1.07444 3.85977
C -1.49156 -.31725 3.64143
C -3.66033 1.42486 2.92082
C -3.84916 -.00991 2.94696
C -2.76351 -.88130 3.19061
C -2.77708 -2.17919 2.56954
C -1.52269 -2.91746 2.41260
C -1.51015 -3.97492 1.48514
C -3.59887 2.89819 .93471
C -2.33501 3.46472 1.42791
C -1.88022 3.05387 2.68529
C -4.27896 1.96883 1.73890
C -5.25971 .81817 -.18596
C -4.62313 1.79220 -1.03652
C -3.84717 2.84541 -.50143
C -2.91244 3.44143 -1.37170
C -5.09534 .90936 1.18128
C -4.84334 -1.53598 1.34614
C -5.02972 -1.62998 -.10095
C -5.16893 -.47508 -.84652
C -4.84534 -.30047 1.95983
C -2.54400 -4.09385 .47666
C -3.86848 -2.50854 1.73545
C -3.67257 -3.35197 .57888
