100 

C 3.36783 -2.44854 -2.21649
C 3.65148 -1.16487 -2.70142
C 4.70278 -.47171 -2.05936
C 4.81234 .97011 -2.13615
C 3.84486 1.67236 -2.82393
C 2.72843 .96321 -3.43474
C 2.56872 -.42330 -3.34314
C 2.10000 -3.08775 -2.48575
C 1.01297 -2.37486 -3.01496
C 4.78074 2.61767 -.31605
C 3.76018 3.34976 -1.03513
C 5.31523 1.45700 -.86814
C 3.33717 2.91437 -2.28465
C 1.94339 2.99716 -2.62441
C -1.36404 3.75076 -1.06677
C -2.70715 3.49006 -1.32337
C -.39016 3.23848 -1.99769
C 1.00290 3.54084 -1.75592
C 1.42187 3.90611 -.41552
C 2.76628 3.78303 -.08179
C -.46606 -3.99371 -1.92308
C -.32252 -2.86105 -2.74143
C 1.22102 -.97966 -3.40149
C -1.48067 -1.98660 -2.92247
C -1.27375 -.63134 -3.28528
C .09154 -.11524 -3.47122
C .29855 1.30807 -3.37744
C 1.59407 1.81187 -3.37893
C -2.37076 .31052 -3.17478
C -2.10046 1.71795 -2.91464
C -.74230 2.17215 -2.85831
C -3.08031 2.50542 -2.30191
C 5.27327 .34743 1.32552
C 4.69015 1.54878 1.89786
C 5.54312 .29814 -.02715
C 4.41968 2.63648 1.08910
C 3.15217 3.30671 1.22344
C -.23521 2.67655 2.71368
C -1.53939 3.06810 2.47715
C .80769 3.25893 1.89111
C 2.18092 2.88357 2.13677
C 2.47410 1.76312 3.01454
C 3.73471 1.15002 2.89996
C -.94825 3.99492 .30349
C .44646 3.84022 .65146
C -1.89533 3.84454 1.31505
C 2.81554 -1.01435 3.53656
C 4.67701 -.79838 1.99349
C 3.87625 -.28090 3.06350
C 1.36296 .98349 3.56440
C -.00852 1.41747 3.38764
C 1.58389 -.35336 3.88626
C 2.50045 -2.28115 2.95649
C 3.15101 -2.73306 1.80668
C 4.27763 -1.95321 1.29301
C 4.58662 -2.00682 -.13276
C 5.16222 -.88568 -.77208
C 3.82545 -2.86629 -.94476
C 1.00846 -3.98020 1.23857
C 2.39898 -3.63733 .93006
C 2.83539 -3.77037 -.39172
C .21906 -4.52586 .22671
C .63272 -4.46609 -1.14351
C 1.90712 -4.04766 -1.44499
C 1.07759 -2.49371 3.16099
C -1.12232 -3.06014 2.30185
C .31208 -3.29440 2.33507
C -3.21207 -3.35207 1.04087
C -1.89878 -3.75494 1.29502
C -1.22133 -4.39478 .23329
C -.79091 -.93368 3.52431
C .52770 -1.31128 3.74136
C -4.60396 .36439 2.12171
C -3.44307 -.08686 2.78498
C -3.04732 -1.47757 2.62012
C -1.67918 -1.89239 2.91627
C -3.82741 -2.29448 1.79737
C -1.08967 .48668 3.49111
C -2.65339 2.23653 2.82361
C -2.43900 .89779 3.16766
C -4.79317 -2.34301 -.32716
C -3.72924 -3.31549 -.29106
C -2.82039 -3.44353 -1.36384
C -1.64124 -4.14865 -1.09294
C -4.91320 -1.51738 -1.43117
C -5.64182 .34886 .00688
C -5.29424 -.46067 1.16297
C -4.90193 -1.77060 .99979
C -5.38479 -.15726 -1.26890
C -3.76937 2.64737 2.01022
C -5.30201 1.72020 .32630
C -4.73561 1.72867 1.66699
C -4.65674 .65781 -2.21680
C -4.36635 1.97256 -1.92357
C -4.74214 2.54481 -.64620
C -3.70962 3.49774 -.28323
C -3.28675 3.60382 1.03365
C -2.76715 -2.39928 -2.37772
C -3.83768 -1.50700 -2.41917
C -3.65066 -.16732 -2.85936
