100 

C 1.98014 3.50157 -2.18370
C 2.31391 2.25282 -2.72072
C 3.52590 1.60864 -2.25138
C 3.72959 .19116 -2.48992
C 4.67151 -.49396 -1.68983
C 4.57589 -1.90287 -1.45075
C 2.69067 -.57441 -3.14509
C 2.71215 -1.96785 -3.00856
C 3.63720 -2.64075 -2.14350
C .27559 -.77032 -3.76645
C -.96038 -.16466 -3.98238
C -.07787 2.04189 -3.42520
C 1.25126 1.47256 -3.35206
C 1.43057 .06413 -3.53965
C -1.13660 1.22556 -3.81772
C -.42810 3.26016 -2.70337
C -1.77366 3.42522 -2.15191
C .61771 3.98252 -2.14267
C -1.92289 4.19028 -.99241
C 3.99339 -3.09541 .61861
C 3.10082 -3.94970 -.14225
C 4.76718 -2.13952 -.02152
C 2.92810 -3.72914 -1.49303
C 1.58862 -3.76659 -2.05010
C 1.93376 -4.20461 .68238
C .63189 -4.38568 .12613
C .45227 -4.13790 -1.29224
C .25063 -2.15297 -3.32818
C 1.48373 -2.73771 -3.00261
C -2.20322 -.82868 -3.68128
C -2.22395 -2.04803 -3.01126
C -.94890 -2.74327 -2.81763
C -.83105 -3.74099 -1.78149
C -1.95114 -3.98811 -.93946
C 4.32801 -.52179 1.80592
C 3.42689 -1.48803 2.41354
C 4.99013 -.88030 .61193
C 3.33340 -2.75799 1.83969
C 2.09257 -3.51151 1.89102
C .96855 -3.06417 2.63017
C 1.06409 -1.81186 3.33949
C 2.29991 -1.03284 3.24186
C 2.24180 .31012 3.57132
C -1.36467 -1.86345 3.61050
C -.14563 -1.16618 3.74907
C -1.78236 -4.26457 .41926
C -.47590 -4.26021 1.00114
C -.30160 -3.61684 2.28585
C -1.44807 -3.07836 2.92336
C 5.14236 .09418 -.45722
C 3.13848 1.28874 2.98970
C 4.14218 .90336 2.07703
C 4.51101 1.85731 1.10205
C 4.92444 1.41703 -.21826
C 2.42634 2.50091 2.84503
C 2.66338 3.36783 1.75858
C 3.76957 3.06225 .93268
C 3.71125 3.33665 -.49391
C 2.63319 4.00421 -1.00628
C .20591 3.97903 1.81246
C 1.53572 4.12620 1.21554
C 1.62516 4.55639 -.12089
C -.89433 4.41279 1.07908
C -.78849 4.73851 -.31542
C .44851 4.71898 -.91946
C 1.08356 2.30187 3.36398
C -1.32826 2.34056 3.02672
C -.02998 2.96425 2.85615
C -3.62838 2.12780 2.12154
C -2.45839 2.88444 2.27522
C -2.21498 3.86119 1.28708
C -.21330 .28198 3.86821
C .99373 .96949 3.83553
C -2.62872 -1.15749 3.46443
C -2.66554 .25004 3.40428
C -1.42320 1.01113 3.56112
C -3.75122 .81831 2.71729
C 4.25048 2.21901 -1.20496
C -5.01129 .85539 .77606
C -4.37189 2.14244 .90822
C -3.86780 2.83236 -.21764
C -2.86963 3.78946 .03297
C -5.14686 .29442 -.46731
C -3.49735 -1.95363 2.68009
C -4.40922 -1.35894 1.77183
C -4.61073 .03158 1.90488
C -3.82456 -3.13154 .14433
C -2.94468 -3.75219 1.12245
C -2.78118 -3.17574 2.35264
C -4.92567 -1.13702 -.63918
C -4.57682 -1.96672 .44871
C -3.18480 .20636 -3.42633
C -4.23142 -.02964 -2.56190
C -4.34540 -1.32976 -1.92451
C -3.36700 -2.32757 -2.13633
C -3.21416 -3.28814 -1.11817
C -3.90557 2.19302 -1.52616
C -2.82148 2.44950 -2.46582
C -2.51217 1.46586 -3.40741
C -4.62107 .98259 -1.63305
