100 

C 2.32797 -3.73874 -1.72209
C 1.70580 -4.23353 -.57668
C .30468 -4.63963 -.66925
C -.50864 -4.68386 .54225
C -1.90999 -4.47572 .45626
C .09404 -4.36215 1.76343
C 3.39510 -2.90867 .77643
C 2.29681 -3.87017 .71491
C 1.50759 -4.04930 1.85795
C 3.63109 -2.23447 1.97827
C 2.72607 -2.34734 3.08036
C 1.66550 -3.21590 3.00379
C 3.90371 -2.28817 -.44439
C 4.46444 -.93626 -.40940
C 3.42116 -2.78385 -1.65758
C 4.46761 -.19027 -1.59188
C -.59730 -3.57802 2.73281
C -1.89556 -3.10912 2.50310
C -2.59524 -3.71470 1.43508
C -2.24779 -1.75864 2.93500
C -3.47536 -1.17401 2.41690
C -3.70266 .18316 2.63439
C .36355 -2.77943 3.43820
C 1.23879 -.53349 3.87241
C .10540 -1.44159 3.73905
C -1.23456 -.91600 3.49573
C 2.14391 1.71298 3.46372
C 1.03494 .90632 3.72559
C -.27755 1.43632 3.43469
C -1.41368 .52298 3.47986
C -2.65727 1.02448 3.12651
C 2.53166 -1.04570 3.66262
C -4.17295 -1.79681 1.29186
C -3.68728 -3.01675 .78720
C -4.55624 .98724 1.77896
C -5.07180 .42892 .62381
C -4.85178 -.97157 .36629
C -4.00557 2.33046 1.75092
C -4.91034 1.13244 -.63881
C -4.43876 2.42786 -.65962
C -4.02874 3.07437 .58435
C -2.81558 2.33885 2.55767
C -1.70221 3.11946 2.25046
C -.41258 2.70747 2.78613
C -4.56281 -1.11304 -1.02455
C -3.82193 -2.18505 -1.50651
C -3.61246 -3.26098 -.60139
C -2.54824 -4.21174 -.81565
C -1.78051 -4.11671 -1.94256
C -4.43574 .20046 -1.61292
C -2.90601 1.86409 -2.52667
C -3.36584 .50350 -2.47409
C -2.50369 -.58397 -2.94702
C -2.84954 -1.93908 -2.56798
C -1.94066 -2.96622 -2.83395
C -1.02331 3.41865 -2.74797
C -1.56779 2.15166 -3.03654
C -1.19161 -.29401 -3.45224
C -3.53436 2.81903 -1.69184
C 1.57309 -3.43129 -2.90313
C -.37107 -4.44770 -1.89102
C .23794 -3.71596 -2.95432
C 3.30986 -1.94018 -2.81171
C 2.05434 -2.18789 -3.45533
C 3.79755 -.65738 -2.76509
C -.68132 1.09255 -3.43723
C -.26639 -1.37520 -3.67540
C -.68775 -2.69479 -3.42172
C .36806 3.63824 -2.73345
C 1.26452 2.62514 -3.08767
C .73278 1.34533 -3.50905
C 1.66753 .22592 -3.65623
C 1.17112 -1.12863 -3.74901
C 3.01071 .41319 -3.30328
C .66148 4.57481 -1.64752
C 1.86440 4.51631 -1.00141
C 2.90552 3.64701 -1.51123
C 2.62412 2.73337 -2.55414
C 3.45552 1.61343 -2.63872
C -2.78512 3.93220 -1.15517
C -.53460 4.76650 -.88586
C -1.59581 4.26646 -1.71596
C 3.20420 3.12111 1.95850
C 2.01279 2.94991 2.76050
C .76744 3.42751 2.35042
C 3.12577 3.82127 .78743
C 1.89871 4.48455 .43490
C .71443 4.29056 1.17327
C -.54861 4.50441 .50011
C -1.77681 4.00186 1.09607
C -2.92765 3.94406 .28555
C 3.58543 -.21737 3.13372
C 3.98660 1.90200 2.03397
C 3.42759 1.14361 3.10695
C 4.32949 1.25363 -1.58228
C 3.71954 3.25764 -.41259
C 4.35079 1.99167 -.38566
C 4.46861 1.26375 .87474
C 4.53315 -.19749 .85714
C 4.18521 -.88981 2.01583
