100 

C 4.29445 1.97045 -1.20611
C 3.39098 3.04406 -1.23835
C 3.20780 3.76477 -.02508
C 1.25720 3.93000 -2.05628
C 2.29932 3.01376 -2.22091
C 2.03914 1.81559 -2.98777
C 3.04899 .76962 -2.98410
C 4.17520 .87360 -2.11953
C 2.69354 -.52195 -3.40244
C .68617 1.49702 -3.37951
C -.37348 2.43297 -3.13445
C -.03774 3.67903 -2.56534
C 3.56593 3.16399 1.21422
C 4.84612 1.47493 .01525
C 4.37234 1.99114 1.25845
C 5.10612 .08331 -.15590
C 4.90162 -.83997 .92016
C 4.55508 -2.18182 .59610
C 4.73799 -.27261 -1.49836
C 3.31170 -1.70208 -2.84131
C 4.27610 -1.58906 -1.82295
C 4.27862 -2.57723 -.79796
C 4.14186 1.07855 2.30939
C 4.42077 -.32368 2.14889
C 3.05957 -3.92546 .60694
C 3.72539 -2.94044 1.43967
C 3.01956 -2.31752 2.51817
C 3.43404 -1.04139 2.88699
C 1.84618 -4.40538 .97426
C 2.32545 -2.73307 -2.80323
C 2.26029 -3.65651 -1.74751
C 3.32411 -3.61150 -.78797
C 2.96319 1.20486 3.12065
C 2.06191 2.28217 2.96622
C 2.46932 3.34626 2.12905
C .65935 2.05929 3.20289
C -.27255 3.05623 2.72212
C -1.63402 2.77883 2.82755
C 2.49195 -.09307 3.43018
C 1.17345 -3.87780 2.15756
C 1.64033 -2.70715 2.80423
C .67792 -1.73895 3.27612
C 1.12314 -.37771 3.54017
C .19253 .72519 3.51738
C -.73757 -2.00014 3.13747
C -1.21718 .43162 3.46419
C -2.09873 1.50463 3.24975
C .13538 4.06723 1.76003
C 1.50786 4.19891 1.50806
C 2.00352 4.52567 .19997
C -.79903 4.51267 .73935
C -.28286 4.84336 -.53444
C 1.11055 4.71922 -.82578
C -2.61001 3.35276 1.94202
C -2.19889 4.11262 .82432
C -2.95142 3.96422 -.37404
C -2.26768 3.97743 -1.64508
C -.97588 4.39859 -1.72228
C -3.71209 2.44876 1.87493
C -4.98525 .97028 .43493
C -4.40610 2.24818 .65725
C -3.97748 2.98719 -.47752
C -3.89148 .03789 2.43837
C -3.40668 1.32193 2.71042
C -4.85036 -.07654 1.38427
C -.18825 -4.10383 1.97858
C -1.15270 -3.22954 2.53316
C -1.70093 -.91674 3.24819
C -2.46719 -3.35898 2.02188
C -3.41906 -2.35167 2.20683
C -3.05603 -1.10424 2.78235
C -5.10315 -1.03145 -.74620
C -5.00646 .38523 -.89531
C -4.21236 .95955 -1.91690
C -3.82786 2.31187 -1.74967
C -4.45610 -1.85862 -1.64968
C -3.86511 -3.42627 .16169
C -4.37872 -2.44983 1.11750
C -5.03007 -1.32755 .68128
C -3.85759 -3.11401 -1.20060
C -.39433 -4.66170 .63903
C -1.60864 -4.41087 -.05342
C -2.71116 -4.01466 .73803
C 1.12483 -2.20885 -3.37762
C -.13231 -2.65750 -3.00653
C -.23364 -3.71871 -2.01709
C .95535 -4.16825 -1.35500
C .83001 -4.69494 -.02503
C -2.66258 -3.31899 -1.95399
C -1.53068 -3.97225 -1.41792
C -2.69716 2.83253 -2.41079
C -1.75745 1.98534 -3.06106
C -3.37038 .11024 -2.72925
C -2.08659 .59243 -3.21020
C -1.03107 -.34680 -3.49754
C .32180 .12360 -3.66382
C 1.34795 -.83488 -3.72352
C -3.57458 -1.27813 -2.62383
C -2.50420 -2.19014 -2.84002
C -1.24655 -1.75973 -3.25131
