100 

C 4.69941 .45389 1.65719
C 3.72959 .16323 2.64294
C 3.37516 -1.19297 2.80825
C 2.07022 -1.55602 3.28860
C 1.08646 -.61985 3.56473
C -.30223 -1.07254 3.56456
C 4.77034 1.76187 1.04247
C 3.95977 2.77206 1.49982
C 2.95787 2.48301 2.51431
C 2.74988 1.17784 3.01585
C 1.42255 .80296 3.43662
C .35607 1.75795 3.35716
C -1.33070 -.09546 3.69966
C -2.67550 -.49550 3.50304
C 1.75519 -2.84647 2.73893
C -.62960 -2.40416 3.08943
C .41357 -3.25062 2.54509
C -2.99292 -1.75975 2.98341
C -1.98801 -2.71965 2.76035
C -2.25864 -3.73013 1.78519
C -4.13386 -1.60853 2.06733
C -4.21665 -2.41876 .90729
C -3.33443 -3.53293 .80608
C -4.64017 -1.80668 -.29233
C -3.37143 1.73882 2.88135
C -3.68109 .42224 3.02680
C -4.48755 -.24610 2.02656
C -4.79186 .41014 .79127
C -4.91936 -.40667 -.34241
C 1.87519 3.35082 2.29968
C .58049 3.02185 2.71439
C -1.01632 1.32457 3.57565
C -2.04814 2.20429 3.23435
C -1.21917 -4.42030 1.16152
C .14471 -4.18280 1.49941
C 1.16026 -4.45590 .48912
C -1.62220 -4.66624 -.21035
C -.67580 -4.69579 -1.18952
C .72547 -4.72713 -.83607
C -2.87628 -3.98347 -.43983
C -3.06268 -3.17691 -1.61240
C -4.02395 -2.17529 -1.53563
C 2.49620 -3.93933 .66697
C 2.78886 -3.22727 1.87215
C 1.41868 -4.15224 -1.93853
C 2.67336 -3.61907 -1.76174
C 3.27814 -3.62850 -.47373
C .46969 -3.45531 -2.78720
C -.12516 .11560 -3.75484
C -1.20941 .97762 -3.84723
C -.38945 -1.29980 -3.52759
C .73044 -2.16195 -3.26718
C 2.07418 -1.60721 -3.08791
C 3.02768 -2.39313 -2.43160
C -1.92881 -3.00272 -2.53633
C -.83161 -3.84104 -2.37009
C -3.93554 -.99232 -2.35853
C -2.80740 -.77449 -3.19570
C -1.72313 -1.74085 -3.21915
C -2.54748 .54788 -3.55096
C 4.23080 -2.53398 -.45545
C 4.54071 -1.84440 .75166
C 3.81299 -2.19924 1.92087
C 4.99774 -.51526 .64379
C 4.08971 -1.80717 -1.66068
C 4.35856 -.42169 -1.73354
C 5.02549 .15557 -.63369
C 4.30556 2.39031 -1.28213
C 4.96065 1.57303 -.38635
C 1.27542 2.10257 -3.19359
C 3.49010 .39910 -2.56564
C 2.45335 2.61766 -2.64588
C 3.56285 1.79341 -2.37707
C 1.19391 .69334 -3.48687
C 2.29466 -.16140 -3.15661
C -2.38783 2.78795 -2.98990
C -1.11898 2.37599 -3.50578
C .07617 2.91120 -3.04088
C -2.43993 3.71533 -1.96888
C -1.22161 4.29633 -1.49064
C .02283 3.93614 -2.01526
C -4.52903 .07459 -1.65598
C -4.12391 1.41516 -1.86508
C -3.25834 1.63985 -2.95331
C -2.92345 3.57298 1.55406
C -3.83575 2.47906 1.71800
C -4.40246 1.81933 .61524
C -2.70316 4.10208 .30002
C -3.33284 3.50027 -.84302
C -4.10974 2.33547 -.72523
C -.29828 4.39296 .79905
C -.51344 3.74449 2.08678
C -1.80354 3.38390 2.44447
C -1.38069 4.53465 -.06580
C 2.42617 3.69815 -1.66287
C 3.55111 3.53613 -.80668
C 3.38938 3.73193 .56923
C 1.19939 4.18382 -1.19493
C 1.03913 4.40426 .22091
C 2.11326 4.10831 1.06991
