100 

C 2.72257 2.30931 2.76706
C 3.57272 1.19842 2.66067
C 4.61853 1.29789 1.71430
C 5.26361 .11820 1.19506
C 4.85927 -1.11815 1.65937
C 1.38947 2.18458 3.29690
C -.64617 .80524 3.50607
C .79698 .89658 3.52800
C 1.61767 -.26214 3.40177
C 3.05203 -.10456 3.04832
C 3.77117 -1.21354 2.61105
C -2.64002 -.58766 3.32148
C -1.24026 -.49420 3.48273
C .98299 -1.55972 3.25048
C 5.30349 -.72615 -1.10728
C 4.88126 -2.02019 -.61637
C 5.53037 .31936 -.21378
C 4.74061 -2.23184 .74461
C 3.66181 -3.07069 1.21656
C 2.80201 -3.74439 .31505
C 1.60626 -4.22905 .85543
C -.44174 -1.67097 3.25048
C 1.76667 -2.66361 2.73399
C 3.11199 -2.47113 2.38317
C -1.09390 -2.84616 2.65024
C -.30591 -3.82014 2.06620
C 1.11420 -3.73162 2.08969
C 4.46789 1.91474 -1.74723
C 4.19006 .81890 -2.65693
C 5.08909 1.66106 -.54189
C 4.56973 -.46887 -2.33064
C 3.63366 -1.54528 -2.54150
C -.04090 -2.00346 -3.21595
C -1.04014 -2.89997 -2.88321
C 1.32465 -2.30305 -2.79453
C 2.35211 -1.32980 -3.06684
C 1.97879 .01836 -3.45585
C 2.90074 1.04703 -3.24597
C 2.81586 -3.35001 -1.09534
C 3.85083 -2.52609 -1.51959
C .47202 -4.55947 .01733
C .44732 -4.10811 -1.33180
C 1.56967 -3.33960 -1.84764
C -.81043 -3.94509 -1.91534
C -.59945 4.47328 .61653
C .82070 4.29661 .57612
C 4.54709 2.26855 .66111
C 3.34184 2.83042 -1.80248
C 2.83359 3.48049 -.66202
C 3.49089 3.19903 .61276
C 1.46452 3.93875 -.68991
C 2.45111 2.35031 -2.79234
C 1.10693 2.68536 -2.79004
C .62868 3.62591 -1.81210
C -1.65871 3.17349 -2.60473
C -.81209 3.87363 -1.74987
C -1.38794 4.38213 -.53080
C -1.82784 -.27325 -3.49991
C .19514 1.74668 -3.42015
C -2.15753 1.09289 -3.47859
C -1.16015 2.07332 -3.39557
C -.43560 -.64171 -3.57314
C .57126 .37759 -3.60349
C 2.72733 3.33286 1.79581
C 1.41946 3.91272 1.77248
C -1.37895 3.98657 1.73464
C -.78144 3.16531 2.69639
C .63517 3.24035 2.78932
C -2.83720 1.79967 2.80634
C -1.45173 1.95974 3.14040
C -3.43146 .53630 3.02734
C -2.69452 3.72016 1.26162
C -4.52543 2.17959 1.03257
C -3.47225 2.67944 1.82894
C -3.03207 2.85656 -2.25502
C -3.56189 3.24106 -.98580
C -2.72194 3.99415 -.12724
C -4.51975 2.39711 -.38849
C -5.40295 .27981 -.01328
C -5.10401 .87645 1.27642
C -4.60478 .09054 2.29403
C -5.28063 -1.07953 -.19844
C -3.34000 1.59553 -2.79874
C -4.25313 .70422 -2.16970
C -4.94557 1.18355 -1.03826
C -3.04499 -3.34983 -1.81081
C -2.42948 -2.52115 -2.80516
C -2.83964 -1.20896 -3.02114
C -4.09675 -2.86269 -1.07393
C -4.66736 -1.58876 -1.40703
C -4.03904 -.72892 -2.32885
C -.68863 -4.44663 .80598
C -1.95329 -4.19923 .23508
C -2.01550 -4.13729 -1.17251
C -4.49063 -1.34331 2.11175
C -3.27569 -1.75986 2.73638
C -2.50221 -2.80176 2.24177
C -4.87072 -1.93031 .90945
C -4.09123 -3.00564 .37740
C -2.94141 -3.48101 1.03265
