100 

C 2.40803 2.68042 2.52639
C 3.57411 1.93448 2.29281
C 4.37482 2.12102 1.11602
C 1.96193 3.61532 1.50901
C 2.73555 3.74503 .34082
C 3.95874 3.01929 .14760
C -.23262 3.68934 2.54707
C .56771 3.98645 1.43367
C -1.52220 4.15678 .05378
C -.07677 4.21991 .14864
C .70349 4.07025 -1.04634
C 2.09875 3.89006 -.92780
C -2.10355 3.97862 -1.21307
C -1.66633 3.56482 2.43621
C -3.55201 3.10506 1.03245
C -2.31821 3.78572 1.21796
C 5.01525 .49721 -.60485
C 4.53363 1.41855 -1.62376
C 4.90428 .82365 .73007
C 4.02973 2.65290 -1.25847
C 2.85137 3.14933 -1.90279
C 3.84790 .64771 -2.62224
C 2.67443 1.10246 -3.25113
C 2.18499 2.42083 -2.91050
C -1.30761 3.71610 -2.36703
C .08860 3.67401 -2.29219
C .81071 2.78258 -3.19676
C .07344 1.92385 -4.01522
C 3.60525 -2.94174 -.64616
C 4.29211 -1.83063 -.10685
C 4.67617 -.83675 -1.03014
C 4.00889 -.73820 -2.29925
C .50865 .56491 -4.22624
C 1.74809 .10601 -3.77433
C 1.87844 -1.29210 -3.44413
C 3.06254 -1.70361 -2.70463
C 3.03469 -2.89215 -1.95477
C 4.04515 -1.46302 1.28312
C 4.38820 -.15834 1.66722
C 3.62646 .53568 2.64940
C 2.79084 -3.77555 .16203
C 2.48931 -3.41237 1.50589
C 3.04790 -2.17798 2.05978
C 2.34304 -1.49379 3.11394
C 2.58883 -.08662 3.34822
C 1.10571 -2.05802 3.62631
C .16896 -1.22538 4.26691
C 1.28951 -3.92942 2.03307
C .59347 -3.24605 3.06620
C 1.79174 -4.35890 -.68946
C -.58405 -4.65135 -1.04556
C .53342 -4.74844 -.18130
C .31075 -4.58458 1.21220
C -.63552 -.27338 -4.24477
C -.58054 -1.58903 -3.79482
C .71269 -2.14329 -3.44886
C .74657 -3.40429 -2.71760
C 1.89485 -3.74598 -1.97342
C -.46969 -3.99915 -2.30735
C .41951 .16146 4.46423
C 1.56509 .77320 3.91824
C 1.45921 2.14800 3.47595
C -.85211 .82841 4.50798
C -.94575 2.13455 4.09748
C .21188 2.79714 3.57126
C -3.88599 2.00090 1.84960
C -2.10354 2.55892 3.34473
C -3.10085 1.63570 2.95927
C -.80688 -3.42538 2.85602
C -1.73571 -2.40038 3.20133
C -1.25006 -1.40197 4.05066
C -1.87741 -.12650 4.12626
C -3.46895 -.81877 2.38403
C -2.93429 .21061 3.27942
C -3.07550 -2.99669 1.17056
C -2.86627 -2.11816 2.33672
C -3.91360 -2.55281 .15088
C -4.49708 -1.24268 .17818
C -4.31663 -.38782 1.27365
C -4.52001 .99000 1.02314
C -2.64434 -3.74180 -1.56431
C -1.90522 -4.39157 -.52145
C -2.08952 -4.02787 .82732
C -.97836 -4.23074 1.70081
C -3.66874 -2.87900 -1.23656
C -2.96951 -1.30859 -3.00741
C -1.82486 -2.16628 -3.28049
C -1.74146 -3.39403 -2.61515
C -3.88449 -1.71121 -2.02200
C -3.25543 2.43128 -2.57102
C -2.05220 2.82883 -3.23560
C -1.36583 1.91602 -4.00617
C -3.68249 1.09119 -2.56923
C -2.91995 .11540 -3.34629
C -1.81555 .55971 -4.07105
C -4.61747 1.49282 -.29391
C -4.05381 2.82598 -.29242
C -3.36370 3.26778 -1.38647
C -4.52507 -.73683 -1.15676
C -4.45131 .63324 -1.41301
