100 

C -4.49350 2.38342 -.73808
C -4.78351 1.20374 -1.44444
C -5.22537 .05134 -.68885
C -4.07743 .97186 -2.65330
C -3.01330 1.81352 -3.03635
C -2.64199 2.93976 -2.27487
C -3.48378 3.28144 -1.19033
C -3.75468 -.38842 -3.08740
C -4.14575 -1.52892 -2.30190
C -4.90655 -1.30554 -1.13744
C -3.28447 -2.66571 -2.32780
C -2.50739 -.35394 -3.72088
C -.16635 -1.16153 -3.70766
C -1.59262 -1.44523 -3.64041
C -2.02983 -2.61714 -3.02922
C 2.09803 -1.92889 -3.29363
C .75068 -2.19496 -3.26556
C -.81917 4.17352 -1.19486
C -1.23222 3.31871 -2.24780
C 1.14722 2.66754 -2.56076
C -.23867 2.51222 -2.90274
C -.65880 1.28651 -3.59690
C -2.00796 1.00320 -3.67927
C 1.69987 .45762 -3.63613
C .29150 .18035 -3.76831
C 2.59151 -.62637 -3.62041
C -3.10788 -3.48549 -1.18789
C -3.78450 -3.19115 .02521
C -4.72531 -2.12014 .01947
C -3.10573 -3.47131 1.24048
C .29635 -3.22222 -2.34689
C -1.09162 -3.46470 -2.31245
C -1.72096 -3.96223 -1.17997
C 1.09550 -3.57001 -1.22269
C -.97994 -4.10848 .02804
C -1.71877 -3.94803 1.23556
C -3.28056 -2.63908 2.37117
C -4.14308 -1.50359 2.33315
C -4.90558 -1.29305 1.16728
C -3.75040 -.35443 3.10419
C -2.02456 -2.58271 3.07016
C 2.10362 -1.89208 3.31956
C .75641 -2.15839 3.29688
C -.15989 -1.12015 3.72840
C -1.58643 -1.40448 3.66701
C -2.50175 -.31269 3.73510
C 2.50408 -3.18547 1.26710
C .30070 -3.19572 2.39056
C -1.08742 -3.43815 2.36124
C 3.01225 -2.52942 2.39606
C 1.09779 -3.55605 1.26889
C 3.00805 -2.55589 -2.36439
C 2.50198 -3.19949 -1.22740
C .43364 -3.89457 .02554
C 3.23532 -3.08013 .01860
C 4.46420 -2.38673 .01371
C -4.07386 1.00110 2.65484
C -4.78195 1.22006 1.44466
C -5.22488 .05901 .70343
C -4.49264 2.39189 .72405
C -3.00920 1.84697 3.02662
C -2.63940 2.96487 2.25209
C -3.48238 3.29474 1.16483
C -1.65196 4.36714 -.01991
C -2.94064 3.93378 -.01672
C -.65378 1.32627 3.58994
C -2.00277 1.04393 3.67721
C 3.45403 1.83533 2.56837
C 2.14312 1.75180 3.04962
C 1.15045 2.69570 2.53640
C -.23506 2.54405 2.88148
C -1.22972 3.34345 2.21904
C 1.51155 3.50480 1.41694
C .50666 4.17994 .71395
C -.81805 4.18693 1.15644
C .29730 .22243 3.77287
C 2.59724 -.58569 3.63063
C 1.70529 .49806 3.63527
C 4.84809 1.96091 .68324
C 3.76989 2.60819 1.38182
C 2.76380 3.28588 .71093
C 4.84722 1.95319 -.70539
C 3.76796 2.59270 -1.40921
C 2.76294 3.27773 -.74406
C 3.92436 -.49283 3.08893
C 5.21277 .76979 1.41949
C 4.37081 .72085 2.60476
C 5.21057 .75374 -1.42882
C 5.50800 -.40818 -.72339
C 5.50908 -.39995 .72670
C 4.92511 -1.65714 1.17009
C 4.18837 -1.70856 2.33566
C 4.36669 .69152 -2.61199
C 3.91941 -.52751 -3.08173
C 4.18444 -1.73470 -2.31520
C 4.92332 -1.67029 -1.15154
C .50593 4.17176 -.75370
C 1.50977 3.48878 -1.45059
C 3.45019 1.80664 -2.58663
C 2.13863 1.71765 -3.06489
