100 

C -3.81879 1.23556 2.40443
C -4.75235 .39385 1.76832
C -5.25860 .67843 .46461
C -3.38955 2.44750 1.71958
C -3.97363 2.74394 .48521
C -4.88789 1.85577 -.16197
C -1.38411 2.54212 3.13118
C -2.07797 3.04960 2.02739
C -1.32319 3.77904 1.03581
C -1.92458 3.95744 -.28646
C -3.20692 3.41474 -.54807
C -1.10365 4.14340 -1.40151
C .01811 2.64915 3.24051
C .78391 3.32499 2.29300
C .10379 3.93763 1.18178
C 2.29754 4.09546 .03717
C .90930 4.30284 .01868
C .30867 4.32065 -1.25597
C 3.91159 1.24907 2.47617
C 2.69892 1.79761 2.89664
C 2.21108 2.99760 2.23900
C 2.96833 3.53584 1.19517
C -4.96032 -.55299 -1.65068
C -4.55637 .68699 -2.29053
C -5.30570 -.56905 -.29939
C -4.57445 1.86320 -1.58250
C -3.51400 2.82743 -1.79333
C -2.46311 2.58424 -2.73302
C -1.32372 3.37280 -2.59095
C -2.55860 -3.36905 -1.83502
C -3.69952 -2.64677 -1.36364
C -4.14545 -1.58786 -2.17373
C -3.22902 -.98560 -3.15435
C -1.94453 -1.55038 -3.41682
C -1.75268 -2.85386 -2.94123
C .67196 -2.61902 -3.18256
C -.45735 -3.37522 -2.80567
C 1.90006 -3.09653 -2.66812
C -2.31807 1.28125 -3.33457
C -3.42580 .38456 -3.16901
C 1.68561 -.33446 -3.44245
C -.06190 2.94185 -3.08386
C .14754 1.61708 -3.48884
C -1.00836 .75293 -3.61337
C -.80470 -.68634 -3.65435
C .51871 -1.22741 -3.55406
C -3.96906 -2.63604 .04793
C -4.82878 -1.62331 .53824
C -4.63927 -1.05739 1.86166
C -2.98202 -3.22870 .95990
C -2.94010 -2.74868 2.29106
C -3.74192 -1.62305 2.71797
C -1.71724 -4.05639 -.97075
C -1.81006 -3.87145 .45478
C .68134 -4.23679 .56170
C -.58371 -3.90022 1.22059
C -.53390 -3.20978 2.47358
C -1.72649 -2.68200 2.99281
C 1.87129 -3.95567 1.22552
C -.43190 -4.17496 -1.61843
C 1.94533 -3.97996 -1.56807
C .74136 -4.33927 -.89527
C -1.78976 1.31299 3.78889
C -2.94477 .63220 3.41176
C -2.93174 -.78601 3.57450
C -1.72164 -1.47177 3.80274
C 1.88459 -3.13633 2.40745
C .72106 -2.66491 2.97807
C .75039 -1.36302 3.65928
C -.51231 -.77707 4.05224
C -.60781 .61815 4.18767
C 3.10338 -2.37017 2.42240
C 3.11637 -1.07046 2.95147
C 1.90413 -.53218 3.54540
C 1.75555 .92021 3.59667
C .51348 1.44727 3.89331
C 4.11023 -.19312 2.46329
C 3.87134 -2.70901 1.27169
C 4.66729 -1.73770 .62642
C 4.89526 -.52731 1.33398
C 3.86294 -2.64130 -1.53494
C 3.16027 -3.70884 -.84195
C 3.12861 -3.71752 .53088
C 4.84181 -.45101 -1.47303
C 4.65426 -1.68955 -.83651
C 2.57726 1.92992 -2.86346
C 1.49992 1.06865 -3.38044
C 3.79462 1.35955 -2.50110
C 3.98194 -.05449 -2.55242
C 2.96932 -.89581 -3.03088
C 3.06119 -2.24942 -2.62591
C 4.18878 2.97605 -.70305
C 2.99460 3.66455 -1.12837
C 2.25307 3.20921 -2.24618
C .94129 3.67075 -2.34292
C 4.61929 1.87925 -1.41937
C 5.24203 .70881 .64590
C 4.66470 1.80426 1.40001
C 4.18081 2.93020 .74645
C 5.21252 .74526 -.73599
