100 

C -.98358 -4.29892 .09213
C -2.34309 -4.02999 .22153
C -3.13648 -3.60178 -.89001
C -.38608 -4.23580 -1.23134
C -1.17905 -3.83017 -2.30600
C -2.55649 -3.49340 -2.13391
C 3.17081 -3.83432 -.12883
C 1.83684 -4.31641 -.22965
C 1.05283 -4.09043 -1.37038
C 3.70574 -3.08221 -1.17612
C 2.89214 -2.78132 -2.30104
C 1.58933 -3.27028 -2.43287
C -3.46365 -.02687 -3.05295
C -3.66468 -1.29957 -2.47523
C -2.86580 -2.35266 -2.96589
C -1.70248 -2.06860 -3.74731
C -1.42191 -.77886 -4.20000
C -2.43583 .20518 -3.98516
C -.82983 2.02248 -4.19582
C -2.10250 1.61438 -3.92082
C .68023 -2.55314 -3.32580
C -.64406 -2.95176 -3.33039
C 3.21838 -1.43259 -2.74592
C 2.27750 -.62170 -3.42748
C 1.01414 -1.21108 -3.81975
C -.02916 -.36188 -4.28787
C .22892 1.03673 -4.38358
C -4.21919 -1.37547 -1.12505
C -4.05707 -2.58075 -.42401
C -3.99386 -2.60627 1.01138
C -4.42745 -.13786 -.36158
C -4.55681 -.23421 1.01711
C -4.31323 -1.46359 1.72464
C -3.66942 1.19739 -2.27632
C -4.01927 1.16617 -.92690
C -3.57090 2.25186 -.07929
C -3.68508 2.08597 1.37348
C -4.16493 .84884 1.89469
C -2.89049 2.85160 2.22663
C -2.82901 2.20201 -2.80602
C -2.27013 3.19561 -1.99057
C -2.68180 3.25457 -.60715
C -.66997 4.63784 -.12104
C -1.87215 4.05344 .31934
C -1.96536 3.81423 1.70207
C -.21481 4.47141 -1.48891
C -.98658 3.76514 -2.41813
C -.27507 3.14814 -3.48229
C -1.50525 -1.24019 4.11796
C -2.48439 -1.91034 3.30668
C -3.61890 -1.16260 2.92445
C -3.63818 .29277 3.07295
C -2.31176 2.29063 3.41928
C -2.61816 .97125 3.80508
C -1.57955 .19657 4.37340
C -2.04967 -3.01330 2.48137
C -2.87988 -3.40569 1.41598
C -.16950 -1.60433 4.07093
C .30084 -2.66270 3.22946
C -.63415 -3.37384 2.42378
C -.14124 -4.10450 1.26925
C 1.22939 -4.23016 1.09675
C 2.52068 -1.47622 3.17762
C 1.70893 -2.66698 2.92218
C 2.16033 -3.58873 1.96825
C 3.71407 -1.33483 2.48098
C 4.15724 -2.28909 1.50173
C 3.38752 -3.40460 1.24315
C -.98920 2.80971 3.55111
C .08270 1.98028 3.93307
C -.26001 .69970 4.43113
C .63366 -.40538 4.27158
C 2.32062 1.07782 3.29614
C 1.88667 -.26172 3.71922
C 1.60544 3.32779 2.46130
C 1.40429 2.17751 3.34196
C 2.75005 3.36582 1.65966
C 3.67149 2.28296 1.63282
C 3.48891 1.16311 2.45006
C 4.16839 -.02244 2.05290
C 1.63782 4.60559 -.12588
C .47178 4.70123 .72136
C .45358 4.10957 2.00770
C -.81337 3.81292 2.52780
C 2.74895 3.95716 .33172
C 1.11628 2.92486 -3.37460
C 1.87159 3.47361 -2.32797
C 1.20349 4.39750 -1.48695
C 4.16006 -.88343 -1.87340
C 4.14046 .50982 -1.55083
C 3.30692 1.37642 -2.31701
C 2.43163 .79359 -3.32501
C 1.40985 1.59479 -3.88775
C 3.49580 3.08050 -.55110
C 3.01880 2.72546 -1.81596
C 4.74710 -.14184 .77560
C 4.76364 -1.54732 .41063
C 4.51181 -1.90898 -.89311
C 4.16017 2.12853 .28192
C 4.54193 .88215 -.20465
