100 

C -2.48448 -3.90588 .71181
C -3.54419 -3.21370 .13713
C .17780 -4.63506 1.45946
C -.24419 -4.89764 .19208
C -1.60822 -4.60523 -.18609
C 1.54691 -4.22865 1.69299
C .61873 -4.58050 -.93267
C 1.89839 -3.96972 -.74139
C 2.41256 -3.87216 .61988
C 4.09095 -2.26297 -.18072
C 3.49311 -2.96561 .90704
C 3.58044 -2.36665 2.19365
C -1.60020 -4.31216 -1.55561
C -2.59023 -3.45796 -2.12207
C -3.61015 -2.97754 -1.27761
C -2.21331 -2.64819 -3.21965
C -.20137 -4.23662 -2.00236
C 3.51973 -2.30545 -1.45792
C 2.36893 -3.08160 -1.75105
C 1.50237 -2.63048 -2.82850
C .20791 -3.25649 -2.96511
C -.81841 -2.59511 -3.66402
C -2.77671 -1.36966 -3.39455
C -3.67761 -.80559 -2.45345
C -4.17741 -1.67829 -1.47432
C -3.61704 .64044 -2.17896
C -4.22900 1.13828 -.96351
C -3.94909 2.45208 -.56269
C -1.80162 -.54775 -4.05572
C -.50790 1.44980 -4.14817
C -1.74533 .82008 -3.83471
C -2.64882 1.44723 -2.86586
C -2.26341 2.73314 -2.32277
C -2.94851 3.21755 -1.21437
C 3.75989 -1.04467 -2.10056
C 2.87787 -.51446 -3.01761
C 1.74206 -1.34758 -3.44809
C .66852 -.70871 -4.15400
C -.59687 -1.32179 -4.21814
C .67281 .70389 -4.31441
C -4.66626 .20648 .07536
C -4.58233 -1.17765 -.18101
C -3.99644 2.87529 .82760
C -4.25317 1.94189 1.80994
C -4.58243 .59047 1.42874
C -2.95475 3.86769 1.02632
C -3.39893 1.87059 2.98494
C -2.39844 2.79441 3.17132
C -2.19035 3.85289 2.19642
C -.94295 4.37561 -.31006
C -2.30791 4.08087 -.22222
C -.79299 4.09938 2.11846
C -.16053 4.40532 .90507
C -.28326 4.13384 -1.58873
C -.15832 2.73829 -3.59154
C -.94697 3.32821 -2.60808
C 1.10391 4.26663 -1.63175
C -3.96887 -.29403 2.37670
C -3.63242 -1.60310 2.03612
C -4.14624 -2.08405 .80486
C -2.43168 -2.20194 2.59686
C -1.94768 -3.43209 2.00028
C -.68742 -3.88641 2.37461
C -.20335 -1.82717 3.63255
C .15694 -3.11719 3.21776
C -3.13725 .48008 3.26205
C -1.11021 2.34513 3.63441
C -.81604 .98824 3.85639
C -1.88216 .00933 3.65142
C -1.55273 -1.39055 3.38790
C 2.18471 -1.25001 3.68469
C 2.52881 -2.53729 3.12643
C .56483 .58348 3.83036
C .86509 -.84628 3.87091
C 1.53058 -3.45978 2.88419
C -.13295 3.21395 3.07543
C 1.18371 2.81650 2.92099
C 1.57529 1.51921 3.42908
C 3.72266 1.77396 2.23133
C 2.91228 1.04373 3.11313
C 3.20017 -.33114 3.25272
C 3.15760 3.71642 -.68769
C 1.89322 4.33278 -.41315
C 1.28408 4.22574 .83869
C 3.83930 3.08379 .32423
C 3.24686 2.99357 1.62239
C 1.97046 3.48669 1.88570
C 1.27092 2.81326 -3.56720
C 3.10779 3.11658 -2.00749
C 1.89748 3.58800 -2.61788
C 4.53110 -.22204 -1.18162
C 4.54553 1.85293 .05500
C 4.38997 1.19627 -1.17770
C 3.57743 1.81084 -2.22588
C 2.85383 .95659 -3.17172
C 1.79245 1.51254 -3.87612
C 4.06159 -1.00210 2.35018
C 4.56565 1.10300 1.28277
C 4.65886 -.30087 1.27238
C 4.71266 -.95468 -.00152
