100 

C 3.04916 -3.04470 1.44425
C 4.16715 -2.55457 .73256
C 4.91171 -1.40783 1.17951
C 2.56734 -2.29586 2.58015
C 3.26241 -1.13544 2.95684
C 4.46445 -.70948 2.29111
C -.94388 -3.56661 2.52091
C .48966 -3.52310 2.51922
C 1.18195 -2.40512 2.97669
C -3.02795 -2.41867 2.50845
C -1.69462 -2.46302 2.95628
C .42599 -1.22764 3.40978
C 5.38238 .69662 .00037
C 4.91085 1.42595 1.16784
C 5.38281 -.68767 .00602
C 4.46401 .73651 2.28504
C 3.26164 1.16741 2.94709
C 4.16589 2.56894 .71140
C 3.04749 3.06442 1.41873
C 2.56600 2.32448 2.56053
C -1.00907 -1.23051 3.35471
C 1.12115 .01799 3.51683
C 2.54207 .01773 3.38185
C .48788 3.55035 2.48924
C 1.18074 2.43641 2.95597
C -1.73077 .01672 3.34054
C -1.00965 1.26421 3.34401
C .42544 1.26233 3.39887
C 4.45807 -.72760 -2.27625
C 4.45788 .71837 -2.28220
C 4.90842 -1.41708 -1.16028
C 4.90787 1.41671 -1.17179
C 4.16400 2.56333 -.72292
C 3.25376 1.14404 -2.94470
C 2.55906 2.30426 -2.56602
C 3.04378 3.05333 -1.43156
C .96281 4.31887 1.37932
C 2.14097 3.93233 .71201
C 2.13899 3.92681 -.72969
C .95889 4.30809 -1.39688
C 3.04500 -3.05578 -1.40634
C 2.55994 -2.31594 -2.54673
C 4.16517 -2.56022 -.70201
C 3.25411 -1.15878 -2.93505
C 2.53277 -.00915 -3.36790
C 1.11133 -.00998 -3.49871
C .41632 -1.25463 -3.37886
C 1.17343 -2.42846 -2.93816
C .48243 -3.54266 -2.46951
C -1.01927 1.23734 -3.33001
C -1.74038 -.01010 -3.31345
C -1.01860 -1.25721 -3.31936
C -1.70302 -2.48629 -2.90857
C -.95105 -3.58625 -2.46651
C -3.76505 1.18128 -2.46852
C -3.15764 -.00900 -2.90580
C .48070 3.53062 -2.49905
C 1.17249 2.41296 -2.95848
C .41580 1.23519 -3.38922
C -.95303 3.57326 -2.49639
C -1.70450 2.46925 -2.92920
C -3.03645 2.42400 -2.47692
C .96101 -4.31118 -1.36096
C 2.14078 -3.92409 -.69704
C 2.14286 -3.91854 .74472
C -.18227 -4.82018 -.66094
C -.18025 -4.81489 .72289
C .96508 -4.30039 1.41535
C -1.37660 -4.38683 -1.37109
C -2.58250 -4.09476 -.70044
C -3.47971 -3.22728 -1.37009
C -3.03500 -2.43840 -2.45683
C -3.76437 -1.19615 -2.45863
C -2.58044 -4.08909 .76383
C -1.37254 -4.37595 1.43319
C -3.47576 -3.21631 1.42929
C -4.49148 -2.45670 -.65859
C -4.48960 -2.45126 .71483
C -5.00667 .00514 .74775
C -4.67366 -1.19349 1.42071
C -4.67443 1.20944 1.41081
C -4.49298 2.45586 -.67882
C -4.67828 1.19796 -1.38386
C -5.00876 -.00074 -.70977
C -4.67764 -1.20471 -1.37398
C -4.49111 2.46152 .69459
C -1.37911 4.38228 -1.40750
C -2.58492 4.09486 -.73432
C -3.48175 3.22144 -1.39661
C -1.37486 4.39359 1.39661
C -.18280 4.82745 .68273
C -.18482 4.82206 -.70099
C -3.47753 3.23286 1.40254
C -2.58273 4.10081 .72988
C -3.75729 -1.17622 2.50246
C -3.14927 .01466 2.93771
C -3.75792 1.20158 2.49253
C -3.02916 2.44432 2.48802
C -1.69580 2.49301 2.93525
C -.94564 3.59328 2.49069
