100 

C -4.00716 .47615 2.54005
C -3.93748 -.89255 2.34163
C -4.66082 -1.41932 1.22083
C -4.26941 -2.67639 .62656
C -3.31523 -3.43570 1.22927
C -2.58674 -2.91943 2.38966
C -2.76571 -1.60971 2.84583
C -2.95607 1.17475 3.23730
C -1.73402 .55058 3.54666
C -.04936 -4.75422 .72921
C -2.38474 -4.21155 .43049
C -1.26281 -4.45393 1.28014
C 2.17306 -4.33566 .40286
C 1.15554 -4.36020 1.41258
C 3.32902 -3.64956 .63108
C -.67360 2.75080 3.36987
C -.55237 1.37216 3.61788
C -1.61261 -.88928 3.34973
C .76581 .76885 3.52374
C .89589 -.65073 3.44103
C -.31095 -1.49080 3.32000
C -.16844 -2.84400 2.84318
C -1.31712 -3.53252 2.40810
C 2.19338 -1.22106 3.15515
C 2.31629 -2.55879 2.59548
C 1.12680 -3.35318 2.39758
C 3.46398 -2.87383 1.83727
C .14785 -4.57748 -.68542
C -.85365 -4.04169 -1.48777
C -2.20524 -3.94146 -.93738
C -3.19790 -3.08773 -1.59452
C -4.26882 -2.52721 -.81684
C -2.82011 -2.40298 -2.74608
C 1.53660 -4.26094 -.89203
C 1.95078 -3.31587 -1.83394
C .93089 -2.71473 -2.68882
C -.43124 -3.16396 -2.57192
C -1.44238 -2.42402 -3.21284
C 2.52572 -.83542 -3.18445
C 1.21276 -1.45549 -3.33592
C .12529 -.64698 -3.80258
C -1.16790 -1.18686 -3.79800
C 2.64925 .51994 -3.50699
C 3.54018 -1.43105 -2.33182
C 3.23988 -2.66103 -1.62896
C 4.57288 -.60619 -1.83288
C 3.96559 -2.94970 -.45487
C -3.37488 -1.11977 -3.06818
C -4.32774 -.50492 -2.22157
C -4.79511 -1.25605 -1.09820
C -4.29559 .91191 -2.11788
C -2.35044 -.35192 -3.69709
C 1.49185 1.34240 -3.75144
C .22799 .80561 -3.84351
C -.91864 1.64297 -3.48681
C -2.23248 1.02660 -3.46950
C -3.27537 1.65553 -2.74473
C -4.65129 1.59636 -.87090
C -4.97347 .83847 .30118
C -5.07550 -.57804 .17825
C -4.56421 1.35394 1.54431
C -3.87809 2.75997 -.77463
C -3.44214 3.27773 .48155
C -3.87830 2.61090 1.63895
C -1.88436 3.30835 2.85850
C -3.01063 2.52956 2.79616
C -.07683 4.59521 -.57852
C -1.39402 4.16886 -.69810
C -2.19864 4.04537 .51746
C -1.55930 4.20165 1.76022
C 1.71388 2.63652 -3.17256
C .64453 3.35856 -2.62642
C -.70854 2.86828 -2.79304
C -1.75576 3.39854 -1.90506
C -3.00209 2.81028 -1.93716
C .94680 4.21673 -1.53824
C 1.91870 4.28366 .56609
C .56548 4.72894 .69725
C -.14966 4.43788 1.84269
C 2.48905 3.41284 1.49577
C 1.66176 2.95029 2.60276
C .41133 3.51325 2.78842
C 3.00855 2.63297 -2.56642
C 4.03823 2.55986 -.31268
C 3.19667 3.22778 -1.30553
C 2.17323 4.09454 -.85444
C 4.04987 1.58969 1.93964
C 3.64968 2.62143 1.08500
C 4.87641 .51638 1.49936
C 5.24765 .44556 .15905
C 4.81760 1.46717 -.74168
C 4.54268 .81830 -2.01841
C 3.62602 1.36262 -2.87746
C 4.45097 -.68498 2.20040
C 4.49831 -1.90669 1.57407
C 4.83071 -1.97622 .15393
C 5.15731 -.83324 -.53645
C 1.87873 1.62027 3.15975
C 3.11355 1.04357 2.92281
C 3.29633 -.35557 3.00616
