100 

C -2.60403 3.67768 -1.10799
C -3.33273 3.23487 .01295
C -4.31846 2.25441 -.23329
C -4.84372 1.42393 .82480
C -4.31031 1.53335 2.09417
C -1.33871 4.33622 -.95977
C -.67357 4.36565 .26547
C -1.33699 3.75881 1.43034
C -2.68987 3.29690 1.31571
C -3.20421 2.44775 2.33152
C .87729 3.48652 2.47861
C -.52128 3.24754 2.50459
C 1.52072 4.14798 1.36350
C .78886 4.51502 .23634
C 1.47505 4.47120 -1.02503
C -4.94079 -1.01852 1.01672
C -4.38081 -.91388 2.35225
C -5.12403 .11614 .25896
C -4.06578 .33516 2.87383
C -2.83079 .50921 3.56324
C -3.46299 -1.99442 2.52314
C -2.24925 -1.84068 3.19420
C -1.92775 -.53806 3.74663
C -.97498 2.16380 3.31799
C -2.34203 1.84627 3.26945
C 1.78433 2.59631 3.05265
C 1.35683 1.37158 3.64688
C -.04358 1.15870 3.80869
C -.53751 -.19063 4.02392
C .37699 -1.22978 4.06672
C -3.14311 -3.21398 -1.38005
C -4.03879 -2.20970 -.98039
C -4.38411 -2.19715 .39256
C -3.53678 -2.83684 1.34310
C .06655 -2.52748 3.47448
C -1.16838 -2.77770 2.88444
C -1.21470 -3.62421 1.71769
C -2.44727 -3.62503 .93592
C -2.39897 -3.95695 -.43141
C -4.08779 -.96584 -1.74690
C -4.68505 .13351 -1.12715
C -2.35009 -3.08535 -2.57657
C -2.30117 -1.85710 -3.27164
C -3.11547 -.73516 -2.82208
C -1.11775 -1.59670 -4.00320
C -1.17810 -3.87903 -2.40214
C 1.24790 -3.86991 -2.37109
C .03288 -3.54260 -3.04341
C .03366 -2.41714 -3.89430
C .01305 -4.45220 -.30945
C -1.16875 -4.36244 -1.04694
C 3.59469 -2.88937 1.39858
C 2.52081 -3.71398 .95709
C 2.46262 -3.96643 -.41561
C 1.22919 -4.35629 -1.05418
C .01223 -4.07726 1.11280
C 1.26154 -3.08038 2.96604
C 1.27728 -3.77718 1.74559
C -.67424 -.26015 -4.21726
C -1.40580 .83183 -3.78907
C -2.69294 .59961 -3.12794
C -3.29176 1.70880 -2.41643
C -4.26138 1.46541 -1.42785
C -2.59836 2.93378 -2.32164
C .79794 2.09181 -3.60530
C -.67094 2.08908 -3.60863
C -1.32752 3.13498 -2.97026
C 1.45914 3.17263 -2.98237
C .73904 4.17412 -2.23773
C -.62085 4.13418 -2.20854
C 2.44060 -3.04436 -2.52980
C 2.39651 -1.82543 -3.21590
C 1.20890 -1.56291 -3.98679
C .77875 -.26446 -4.20916
C 2.78059 .65357 -3.08791
C 1.52231 .86733 -3.75571
C 4.10933 -.92010 -1.66651
C 3.20059 -.70789 -2.75225
C 4.68749 .21856 -1.01379
C 4.32433 1.51259 -1.34989
C 3.37153 1.75980 -2.38854
C 2.70559 2.99999 -2.35286
C 4.78898 -.91759 1.14899
C 4.37294 -2.14532 .48382
C 4.06612 -2.15705 -.90768
C 3.21304 -3.18259 -1.34242
C 4.98781 .21039 .41364
C 2.34753 -2.20000 3.37488
C 4.12584 -.84214 2.43992
C 3.49022 -2.11374 2.62848
C 3.03444 2.69119 2.32143
C 4.63051 1.49903 .96204
C 3.87429 1.58447 2.17574
C 3.54313 .35115 2.89515
C 2.29201 .26546 3.65024
C 1.77873 -1.00743 3.93647
C 2.72686 3.84815 -1.14469
C 4.33861 2.33525 -.12811
C 3.45217 3.43456 .00780
C 2.85727 3.64630 1.27103
