100 

C 4.71482 -2.57810 -.10209
C 1.04625 -4.46785 1.61375
C 2.39547 -4.11104 1.05132
C 3.35008 -3.39289 1.97923
C 4.50910 -2.59602 1.39519
C -.99993 -3.87743 2.80048
C .52225 -3.76793 2.79343
C 1.22701 -2.55999 3.23855
C 2.73527 -2.57852 3.11923
C -3.23916 -2.59911 2.72104
C -1.77000 -2.60525 3.07981
C 4.61252 1.29403 2.17491
C 4.92625 -.00146 1.45992
C 4.61176 -1.29403 2.17995
C 3.51074 -1.28299 3.24309
C 2.74279 .00272 3.44681
C 3.51131 1.28739 3.23780
C 1.22838 2.56478 3.22753
C 2.73647 2.58262 3.10857
C .52466 3.77163 2.77816
C -1.02029 1.30471 3.23464
C .49245 -1.28596 3.35635
C .49319 1.29161 3.35078
C 1.22392 .00281 3.41466
C -1.77838 .00314 3.16737
C -1.02105 -1.29866 3.23913
C 5.17827 -.00426 -.03187
C 5.18781 -1.30937 -.80151
C 4.51049 2.59314 1.38501
C 4.71675 2.56972 -.11206
C 5.18862 1.29798 -.80649
C 3.35174 3.39260 1.96569
C 2.39795 4.10799 1.03504
C 1.04913 4.46709 1.59606
C 4.58185 1.29909 -2.20648
C 4.16602 -.00897 -2.84212
C 4.58088 -1.31504 -2.20146
C 3.05036 -.01022 -3.86079
C 3.68531 2.52785 -2.34773
C 1.14050 3.11847 -2.53910
C 2.35503 2.37801 -3.05564
C 2.17826 1.22923 -4.03205
C -1.40490 3.60457 -2.71563
C -.21422 2.80364 -3.12416
C 2.49811 3.90240 -.45811
C 3.76665 3.32042 -1.04362
C -.09704 4.74316 .69478
C -.04604 4.49868 -.67115
C 1.23583 3.97341 -1.29430
C -1.31941 4.46216 -1.45823
C 2.17724 -1.24943 -4.02709
C 2.35294 -2.39433 -3.04544
C 3.68334 -2.54356 -2.33788
C 3.76382 -3.33124 -1.03062
C 1.23231 -3.98244 -1.27756
C 2.49529 -3.91070 -.44252
C -.21603 -2.81706 -3.11163
C 1.13778 -3.13077 -2.52457
C -1.40684 -3.61678 -2.70132
C -1.32237 -4.47094 -1.44112
C -.04951 -4.50624 -.65306
C -.10042 -4.74695 .71355
C .77062 -.77561 -4.39714
C -1.69877 -.76051 -3.58562
C -.41904 -1.49290 -3.79886
C -4.18370 -.77013 -2.77066
C -2.92867 -1.52299 -3.15751
C -2.79645 -2.97676 -2.74863
C -.41818 1.47652 -3.80558
C .77118 .75545 -4.39997
C -2.79511 2.96521 -2.75984
C -2.92804 1.51016 -3.16335
C -1.69838 .74573 -3.58858
C -4.18327 .75900 -2.77333
C -2.66487 -4.38053 -.71451
C -2.65173 -4.27156 .79366
C -1.38010 -4.64594 1.52251
C -3.67057 -3.40603 1.49918
C -3.57009 -3.45159 -1.51915
C -4.48251 -2.47806 -.80288
C -4.67025 -2.58057 .69639
C -5.20501 .00044 .76113
C -4.92383 -1.29838 1.48391
C -4.92286 1.30149 1.47935
C -5.37856 -.00192 -.74219
C -4.94337 -1.23392 -1.53050
C -3.56809 3.44416 -1.53150
C -4.66849 2.58095 .68738
C -4.48092 2.47349 -.81158
C -4.94270 1.22724 -1.53479
C -1.37660 4.64610 1.50472
C -3.66804 3.40820 1.48698
C -2.64882 4.27061 .77801
C -2.66193 4.37477 -.73045
C -4.01057 -1.28653 2.70911
C -3.28412 .00349 3.02243
C -4.00953 1.29302 2.70442
C -3.23730 2.60512 2.71158
C -1.76808 2.61134 3.06974
C -.99714 3.88208 2.78533
