100 

C -3.44694 -1.16085 2.69130
C -2.79195 -2.39083 2.59421
C -3.24227 -3.26866 1.57783
C -2.34027 -4.26159 1.02496
C -1.13495 -4.48538 1.62281
C -2.77623 -.00713 3.23634
C -1.42067 -.00860 3.53558
C -.70299 -1.29064 3.48230
C -1.42109 -2.47886 3.08717
C -.69116 -3.62650 2.72109
C 1.44775 -.00998 3.52877
C .72841 -1.29132 3.47891
C 1.44338 -2.48024 3.08042
C .71066 -3.62718 2.71779
C 2.80173 -.00980 3.22295
C 1.44608 2.46290 3.09580
C -.68732 3.61331 2.74319
C -1.41841 2.46433 3.10248
C -.70160 1.27308 3.49038
C .72983 1.27239 3.48695
C .71453 3.61270 2.73991
C 2.35129 -4.26350 1.01359
C .00490 -4.81161 .81542
C 1.14872 -4.48648 1.61731
C 3.25663 -3.27150 1.56218
C 3.46845 -1.16415 2.67462
C 2.81189 -2.39354 2.58078
C 2.43010 -4.21646 -.42213
C 1.25569 -4.16262 -1.19857
C .00200 -4.53129 -.56739
C -1.25418 -4.16148 -1.19227
C -2.42517 -4.21439 -.41036
C -3.57482 -3.40586 -.71150
C -1.24721 -3.29116 -2.36195
C -2.43602 -2.65173 -2.71617
C -3.61127 -2.69031 -1.87684
C 3.57909 -3.40884 -.72870
C 1.24459 -3.29209 -2.36806
C -.00220 -2.73262 -2.85601
C 3.61119 -2.69309 -1.89417
C 2.43219 -2.65336 -2.72791
C 4.38399 -.72936 1.68515
C 4.56136 -1.46233 .49396
C 4.05996 -2.78607 .49501
C -3.62490 .69590 -2.98311
C -4.25716 -1.39162 -1.92154
C -3.62582 -.67473 -2.98736
C 2.42633 -1.38781 -3.39953
C 1.23367 -.72212 -3.67052
C -.00307 -1.45208 -3.49602
C -1.24002 -.72154 -3.66453
C -2.43200 -1.38629 -3.38769
C -2.43026 1.40856 -3.37889
C -1.23918 .74429 -3.65975
C -4.25554 1.40758 -1.91321
C -4.66833 .73606 -.74680
C -4.66912 -.72597 -.75121
C -4.55009 -1.45830 .51571
C -4.04986 -2.78253 .51434
C -4.36652 -.72530 1.70604
C -3.60814 2.70529 -1.86043
C -3.57121 3.41461 -.69107
C -4.04682 2.78489 .53107
C -4.54836 1.46124 .52440
C -4.36559 .72134 1.71037
C -2.43298 2.67014 -2.69964
C -1.24389 3.30671 -2.34142
C .00034 2.74987 -2.83856
C 2.42728 1.40729 -3.39014
C -.00175 1.47311 -3.48639
C 1.23429 .74373 -3.66541
C -3.44541 1.15046 2.69815
C -3.23875 3.26442 1.59742
C -2.78927 2.38044 2.60869
C -2.33583 4.25973 1.05041
C .00983 4.80883 .84448
C -1.13036 4.47903 1.64976
C 3.61358 2.70297 -1.87719
C 2.43439 2.66878 -2.71096
C 1.24737 3.30605 -2.34727
C 3.58254 3.41201 -.70754
C 2.43429 4.21886 -.39634
C 1.25966 4.17012 -1.17294
C .00645 4.53625 -.53988
C -1.24999 4.17096 -1.16711
C -2.42094 4.22069 -.38514
C 3.62250 -.67702 -3.00459
C 4.25937 1.40465 -1.93303
C 3.62309 .69370 -3.00005
C 4.38490 .71726 1.68982
C 4.06297 2.78153 .51234
C 4.56302 1.45730 .50318
C 4.67643 .73229 -.76865
C 4.67561 -.72986 -.77332
C 4.25799 -1.39487 -1.94183
C 1.15336 4.47803 1.64449
C 2.35582 4.25772 1.03954
C 3.26014 3.26150 1.58235
C 2.81452 2.37778 2.59560
C 3.46976 1.14716 2.68187
