100 

C 2.13179 3.97262 1.56389
C 2.42722 2.85620 2.37281
C 3.58036 2.04888 2.02124
C 3.69051 .70015 2.53526
C 4.59106 -.17795 1.89878
C 4.38230 -1.59907 1.90787
C 2.58648 .12624 3.30235
C 2.54501 -1.25682 3.45864
C 3.42130 -2.13369 2.71613
C .79756 4.48694 1.45677
C 1.34464 2.27072 3.15698
C 1.35205 .86693 3.50039
C -.15598 4.07199 2.34722
C .11963 2.93836 3.19183
C -1.53955 4.00740 1.93549
C -3.12035 3.64296 .17320
C -1.88466 4.15420 .56520
C 3.38966 -3.02857 -1.34192
C 3.64962 -3.07419 .04253
C 4.55077 -2.11124 .55680
C 1.44010 -3.24883 3.03684
C 2.65226 -3.28075 2.27825
C 2.64349 -3.66563 .92402
C .31799 -3.87108 2.55349
C .32737 -4.40308 1.22182
C 1.39800 -4.17750 .35879
C 1.30656 -1.95162 3.65300
C .08340 -1.27839 3.67716
C .10666 .16670 3.67748
C 5.02328 -1.03997 -.24911
C 3.89112 -1.98579 -2.15566
C 4.62892 -.90747 -1.59995
C 2.93006 -1.76918 -3.22632
C 2.72756 -.50801 -3.72195
C 1.79557 -2.62980 -3.00179
C -1.94668 -2.40917 -2.78693
C -2.98051 -2.98601 -2.04956
C -.58638 -2.90693 -2.59276
C .48018 -2.22635 -3.26953
C .26852 -.87655 -3.78268
C 1.38242 -.06203 -3.98903
C 1.08522 -3.94579 -1.06182
C 2.09206 -3.43807 -1.86991
C -1.04170 -4.39831 .75814
C -1.35300 -4.15894 -.59672
C -.28593 -3.79009 -1.50899
C -2.66885 -3.77158 -.87895
C 5.15199 .13205 .61239
C 3.48328 .61352 -3.19192
C 4.42403 .44057 -2.14881
C 4.65295 1.56176 -1.31422
C 4.99674 1.38881 .09536
C 2.62983 1.74746 -3.22215
C 2.74752 2.78810 -2.29332
C 3.86385 2.73399 -1.41818
C 3.77555 3.31824 -.08961
C 2.69788 4.07971 .24611
C 1.32397 1.33437 -3.69563
C .15075 1.93836 -3.26526
C .23781 3.09507 -2.36057
C 1.53648 3.50893 -1.88974
C 1.61022 4.27603 -.70824
C -2.23817 2.92315 -2.01792
C -.94206 3.51996 -1.67151
C -.82318 4.24101 -.43178
C .45656 4.58069 .03350
C -3.33461 3.16446 -1.17986
C -2.29362 1.76447 -2.88596
C -1.06655 1.17258 -3.37076
C -3.45193 .98226 -2.90502
C -2.15078 -1.07000 -3.31643
C -1.00404 -.23295 -3.60703
C -3.37847 -.44369 -3.11507
C 4.31462 2.38974 .86488
C -5.13829 -.02589 -1.62697
C -4.56494 1.24264 -2.03554
C -4.47187 2.29147 -1.13880
C -5.43761 -.23528 -.27971
C -4.56818 -2.52400 -.40693
C -4.21731 -2.29872 -1.79378
C -4.44153 -1.05969 -2.36468
C -5.06293 -1.48257 .35095
C -1.84523 -3.80896 1.76515
C -3.05205 -3.17240 1.45693
C -3.57044 -3.40150 .16128
C -1.11149 2.23773 3.37690
C -1.15471 .85819 3.51521
C -3.46999 .90604 2.51955
C -2.38308 .14832 3.10342
C -2.35028 -1.26732 2.94260
C -1.12175 -1.99699 3.27787
C -.97681 -3.30382 2.80320
C -4.48669 .22701 1.82604
C -4.42655 -1.16927 1.62996
C -3.36423 -1.92640 2.14563
C -4.81733 2.07610 .25404
C -3.91572 2.86701 1.05984
C -3.30170 2.32124 2.21617
C -2.14873 2.96710 2.67525
C -5.17869 .81745 .68122
