100 

C 3.60107 2.32877 2.04635
C 4.27375 1.33191 1.34182
C 4.35637 .00058 1.93435
C 2.86737 2.04161 3.24708
C 2.86645 .77121 3.75162
C 3.69391 -.23024 3.15367
C 1.64365 2.81755 3.24993
C 4.59637 -1.15095 1.06888
C 4.86858 -.93206 -.28856
C 3.05387 -1.49708 3.44084
C 3.22737 -2.56006 2.59961
C 4.03284 -2.40840 1.41108
C 1.73088 -1.21913 3.98946
C 2.10125 -3.41489 2.27946
C .80485 -3.18172 2.82719
C .61049 -2.00877 3.67042
C -.62921 3.92866 2.09092
C -.79288 2.80599 2.91783
C .38893 2.22689 3.51802
C .36077 .83521 3.95505
C 1.60259 .17059 4.15819
C -2.05343 .68465 3.27439
C -.81279 .05002 3.77924
C -.67398 -1.38669 3.73065
C -1.77699 -2.17930 3.31117
C 3.45458 -3.22759 .41186
C 3.55107 -2.90364 -.95152
C 4.43405 -1.84708 -1.28828
C 4.28695 -1.11317 -2.52265
C 3.26671 -1.44904 -3.38806
C 2.24916 -3.83237 .95317
C 1.11606 -4.09715 .13762
C 1.18106 -3.76107 -1.27101
C 2.41296 -3.19194 -1.82236
C 2.33246 -2.49708 -3.02896
C -1.25194 -3.96955 -1.35590
C -.04303 -3.58337 -1.97911
C -1.60635 -3.35286 2.58201
C -.29791 -3.74964 2.15158
C -.14025 -4.23489 .79714
C -1.30613 -4.33308 -.01200
C 3.84412 1.28104 -2.89240
C 2.79827 .91964 -3.83552
C 4.57515 .28447 -2.24830
C 2.51697 -.40845 -4.07440
C 1.13989 -.82986 -4.15933
C -2.32083 .44844 -3.44280
C -3.54943 -.06526 -3.01927
C -1.22885 -.48498 -3.69279
C .06623 .05691 -4.03684
C .36119 1.46233 -3.77534
C 1.70495 1.84616 -3.66786
C -.13179 -2.62428 -3.06937
C 1.05277 -2.14308 -3.58984
C -2.52921 -3.37299 -1.73178
C -2.57263 -2.30073 -2.65602
C -1.34075 -1.84090 -3.27590
C -3.66326 -1.43259 -2.57147
C 4.42092 1.51071 -.10603
C 3.67401 2.55297 -.78187
C 4.86097 .41079 -.86053
C 3.40051 2.40857 -2.15125
C 1.59202 3.98443 -.62473
C 2.80998 3.44778 -.01941
C 2.90202 3.40551 1.37125
C .60699 4.50027 .21179
C .66448 4.32643 1.63303
C 1.78993 3.77775 2.20320
C 2.10541 2.80932 -2.69482
C -.22636 3.35640 -2.28878
C 1.17574 3.50962 -1.95036
C -2.54832 3.59170 -1.51564
C -1.20835 3.96139 -1.40985
C -.79017 4.47453 -.15864
C -2.02111 1.84547 -3.16624
C -.63400 2.30247 -3.16315
C -2.97090 2.59851 -2.47069
C -4.43220 2.54885 -.65123
C -3.38388 3.48973 -.35589
C -2.78745 3.53946 .92128
C -1.54238 4.18478 .99857
C -4.87011 1.69603 .34605
C -5.09182 -.14019 -1.26424
C -4.49531 .71408 -2.27125
C -4.19807 2.03212 -1.98346
C -5.25528 .33747 .02519
C -3.38203 -3.39666 -.61358
C -4.33023 -2.35542 -.39028
C -4.57150 -1.48108 -1.46623
C -3.67188 -2.40064 2.00105
C -2.78393 -3.52719 1.75107
C -2.63814 -4.00886 .47991
C -4.87295 -.50327 1.14521
C -4.48401 -1.83940 .97127
C -3.08607 2.50117 1.90005
C -2.02968 2.02371 2.80520
C -4.16760 1.66852 1.61656
C -4.21006 .32904 2.11232
C -3.18000 -.16688 2.92012
C -3.04097 -1.57789 2.94752
