100 

C 5.31769 -.26028 .35680
C 2.70938 -2.72090 2.53962
C 3.80972 -2.11687 1.91123
C 4.25141 -.88821 2.45724
C 5.01573 .05055 1.66552
C 1.95745 -2.03633 3.52156
C 2.16981 -.66335 3.76482
C 3.38918 -.13769 3.31026
C 1.01648 .22092 3.94322
C 1.18125 1.60567 3.59474
C .04042 2.39282 3.45524
C .62731 -2.57593 3.52389
C -1.73029 -2.28121 3.42364
C -.47744 -1.78202 3.84166
C -.31106 -.33971 4.02518
C -1.47028 .50396 3.84611
C -1.25602 1.87061 3.63186
C 4.81565 2.03663 -.35074
C 4.47676 2.36231 1.02135
C 5.21311 .75996 -.67855
C 4.57138 1.38800 2.00986
C 3.52707 1.26759 2.97190
C 3.34354 3.22421 .99641
C 2.31093 3.12054 1.93197
C 2.40212 2.09657 2.95571
C 2.16420 2.61772 -2.88190
C 3.37300 2.11827 -2.39255
C 3.88548 2.73350 -1.21553
C 3.03866 3.52062 -.39705
C -.03222 3.44930 2.45814
C 1.00261 3.67476 1.57269
C .67640 3.99435 .18000
C 1.73152 3.85984 -.80489
C 1.39021 3.54827 -2.13401
C 3.73047 .73475 -2.69916
C 4.69701 .12373 -1.88176
C 4.65027 -1.28764 -1.61335
C 2.77224 -.11241 -3.41885
C 2.88561 -1.49324 -3.27336
C 3.76056 -2.07824 -2.30047
C 1.24951 1.79637 -3.65708
C 1.46488 .42567 -3.84319
C .30622 -.42247 -4.00495
C .47373 -1.86062 -3.79171
C 1.72694 -2.34994 -3.36330
C -.63033 -2.64889 -3.45717
C -.04748 2.32076 -3.49106
C -1.18786 1.52993 -3.61431
C -1.02200 .13844 -3.93451
C -3.39421 -.20919 -3.29396
C -2.17452 -.74314 -3.73774
C -1.96100 -2.11064 -3.46584
C -3.35145 3.19987 -1.04976
C -2.31874 3.07772 -1.98305
C -2.40911 2.03279 -2.98544
C -3.53346 1.20268 -2.98467
C -1.39843 3.59055 2.07309
C -1.74029 3.87420 .73787
C -.68530 3.98926 -.24969
C -1.01094 3.64046 -1.63548
C .02416 3.39769 -2.51608
C -3.04717 3.52547 .33727
C 4.05116 -2.41379 .50516
C 3.08260 -3.23463 -.22839
C 4.86671 -1.51910 -.21187
C 3.04221 -3.11097 -1.61445
C 1.81788 -3.33153 -2.35031
C -.54945 -3.61361 -2.40638
C .65293 -3.82936 -1.72289
C .63301 -4.01490 -.29020
C 1.88091 -3.76739 .44748
C 1.80393 -3.59942 1.82030
C -1.80614 -3.63805 -1.73254
C -1.88325 -3.77784 -.35655
C -.63509 -4.00865 .38614
C -.65491 -3.79355 1.81466
C .54741 -3.56243 2.49341
C -1.82027 -3.28390 2.43155
C -4.05466 -2.42741 -.44246
C -3.08542 -3.23216 .30797
C -3.04483 -3.07959 1.69111
C -4.87100 -1.51860 .25579
C -5.02096 .01176 -1.65341
C -4.25577 -.94252 -2.42556
C -3.81328 -2.15926 -1.85435
C -2.71251 -2.77535 -2.46981
C -5.32297 -.27195 -.33876
C -4.82283 2.03955 .32142
C -4.48401 2.33688 -1.05711
C -4.57785 1.34220 -2.02532
C -5.21921 .76961 .67537
C -2.17146 2.67490 2.84001
C -3.38001 2.16458 2.36120
C -3.89334 2.75493 1.17181
C -3.76393 -2.03312 2.35514
C -2.88951 -1.42738 3.31559
C -2.77717 -.04387 3.43276
C -4.65465 -1.25773 1.65195
C -4.70244 .15889 1.89136
C -3.73614 .78738 2.69587
