100 

C -4.48223 -.73712 .16625
C -4.48356 .72619 .17129
C -4.41066 -1.40256 -1.05805
C -4.41322 1.39907 -1.04878
C -3.40831 2.76035 1.23559
C -4.06073 1.45976 1.36165
C -3.85722 .71616 2.52644
C -2.58164 3.19067 2.28003
C -2.26514 2.33453 3.37611
C -2.91572 1.13458 3.51899
C -3.75231 2.68676 -1.18035
C -2.04642 4.22943 -.33051
C -3.18226 3.34416 -.09004
C .22001 4.85570 .49093
C -1.13696 4.54053 .76881
C -1.40428 4.00063 2.03073
C -1.52984 4.31872 -1.63965
C -3.85556 -.73989 2.52140
C -4.05784 -1.47686 1.35189
C -3.40301 -2.77529 1.21732
C -2.91324 -1.16225 3.51134
C -2.26042 -2.35992 3.36054
C -2.57534 -3.21005 2.25906
C -2.18305 -.01450 3.98447
C -3.17580 -3.35076 -.11194
C -3.74736 -2.68816 -1.19806
C -1.39631 -4.01566 2.00459
C -1.12798 -4.54764 .73956
C -2.03815 -4.23237 -.35785
C .22965 -4.85816 .46026
C -.34024 -3.52420 2.82919
C 1.86487 -2.43088 2.71942
C .99252 -3.55988 2.40785
C 1.27116 -4.38610 1.29373
C 3.87318 -1.16556 2.13255
C 3.13591 -2.33718 2.01058
C -.84562 2.40130 3.61806
C -.07861 1.25189 3.81126
C -.77606 -.01288 4.02546
C -.07630 -1.27463 3.80253
C -.84089 -2.42459 3.60178
C 1.31698 1.26234 3.38054
C 2.02040 -.00752 3.28985
C 1.31921 -1.27923 3.37207
C 3.30366 -.00479 2.75023
C .73113 -4.85167 -.89836
C -.10634 -4.50105 -1.91940
C -1.52119 -4.31289 -1.66737
C -1.98441 -3.43321 -2.69009
C -3.12009 -2.69782 -2.48788
C 2.07982 -4.34002 -.88233
C 2.51396 -3.40596 -1.86270
C 3.64119 -2.66076 -1.54527
C 3.39049 -3.16795 .83299
C 2.43540 -4.13264 .46768
C 4.17190 -2.64157 -.22141
C -4.19987 .68824 -2.27481
C -4.19850 -.68384 -2.27945
C -3.22305 -1.38309 -3.06900
C -.83906 -2.80713 -3.33458
C -.81462 -1.43261 -3.62514
C -2.08680 -.71377 -3.56183
C -.81772 1.45217 -3.61588
C -2.08836 .73041 -3.55710
C -3.22590 1.39439 -3.05984
C -.84502 2.82480 -3.31657
C -1.99136 3.44454 -2.66783
C -3.12544 2.70561 -2.47017
C 1.54496 -2.83903 -2.79635
C .31562 -3.48954 -2.88971
C 1.62714 1.46419 -3.17891
C 3.88090 -1.37465 -2.16533
C 2.85253 -.70721 -2.86321
C 1.63042 -1.44231 -3.18805
C .44936 -.72758 -3.55839
C .44772 .74927 -3.55366
C 4.79481 -.68233 -1.32213
C 4.79330 .70005 -1.31798
C 3.87769 1.39536 -2.15692
C 2.85088 .72982 -2.85876
C 1.53872 2.85841 -2.77865
C .30817 3.50698 -2.86771
C 4.82089 .72645 1.12940
C 4.82225 -.72339 1.12503
C 4.90983 -1.41363 -.07026
C 4.90694 1.42401 -.06174
C -.34703 3.50678 2.85217
C .98576 3.54801 2.43059
C 1.86047 2.41902 2.73482
C 3.38438 3.16985 .85232
C 3.13161 2.33175 2.02499
C 3.87105 1.16077 2.13958
C 4.16635 2.65123 -.20547
C 2.42723 4.13474 .49312
C 1.26272 4.38116 1.32122
C -.11559 4.51159 -1.89079
C 3.63526 2.67716 -1.52914
C 2.50656 3.42190 -1.84180
C 2.07084 4.34916 -.85557
C .72130 4.85826 -.86787
