100 

C 2.95849 2.32215 -2.25406
C 3.68928 1.15300 -2.42696
C 1.13132 4.34669 -1.39311
C .78636 3.53068 -2.49455
C 1.64084 2.41008 -2.87200
C -.57085 3.48971 -2.82495
C -1.57042 3.94770 -1.91725
C -1.22240 4.43525 -.65628
C .14308 4.78352 -.47819
C -1.11627 2.40056 -3.57953
C -.36574 1.25164 -3.82836
C 1.05459 1.25749 -3.48680
C 1.76130 -.01318 -3.44604
C 3.07845 -.01216 -2.99582
C 3.68879 -1.17427 -2.41977
C 1.05445 -1.28392 -3.47861
C 1.64053 -2.43315 -2.85680
C 2.95793 -2.34222 -2.23941
C -1.07765 -.01471 -4.00708
C -.36574 -1.27989 -3.81988
C -1.11610 -2.42741 -3.56400
C -.57080 -3.51228 -2.80334
C .78616 -3.55154 -2.47262
C 1.13085 -4.36156 -1.36646
C -2.52149 2.33685 -3.25438
C -3.19132 1.13929 -3.40401
C -2.47749 -.01460 -3.89797
C -1.41663 4.11415 1.75351
C -2.02886 4.03459 .49749
C -3.52947 2.68609 -1.03073
C -2.76215 3.15429 -2.11786
C 4.71237 -.73364 -1.48686
C 2.35762 -4.12011 -.63424
C 3.29197 -3.17035 -1.07817
C 4.15946 -2.64676 -.09015
C 4.89303 -1.42453 -.30359
C .74594 -4.79042 .86397
C 2.10315 -4.31686 .74289
C 2.64167 -3.40174 1.68682
C 3.74805 -2.66642 1.27280
C -.00394 -4.40628 1.93966
C -1.57037 -3.96519 -1.89300
C -1.22261 -4.44593 -.62930
C .14273 -4.79338 -.44911
C 4.89324 1.41446 -.31221
C 4.89519 .69145 .95012
C 4.71261 .71700 -1.49125
C 4.89527 -.69436 .95449
C 4.06588 -1.38593 1.87668
C 3.12708 -.71553 2.69082
C 1.78208 -2.84497 2.72693
C .54460 -3.46206 2.90383
C 2.35814 4.10888 -.65927
C 3.29246 3.15646 -1.09737
C 4.15954 2.63801 -.10608
C 3.74784 2.66542 1.25646
C 2.64161 3.40324 1.66599
C 2.10341 4.31309 .71673
C -.00362 4.40942 1.91255
C .74640 4.78759 .83477
C 1.95021 1.46142 3.14277
C 1.78195 2.85242 2.70905
C -1.62453 .73185 4.05571
C -.40542 1.45335 3.89350
C -.54689 2.77089 3.45489
C .54462 3.47080 2.88223
C 1.95072 -1.45143 3.15226
C 3.12689 .72303 2.68614
C 4.06577 1.38861 1.86801
C -.54690 -2.75886 3.47212
C -.40513 -1.43908 3.90265
C .85272 -.73571 3.69722
C .85245 .74886 3.69225
C -1.62442 -.71694 4.05954
C -3.61310 .00504 3.17791
C -2.82696 1.18145 3.50727
C -2.85401 2.35563 2.67784
C -1.76457 3.20626 2.79772
C -4.38023 .00241 2.05705
C -1.76490 -3.19772 2.81728
C -2.85475 -2.34841 2.69208
C -2.82704 -1.16958 3.51373
C -2.76201 -3.17292 -2.09821
C -3.52990 -2.69907 -1.01396
C -3.15711 -3.11879 .34356
C -2.02923 -4.03918 .52218
C -1.41695 -4.11218 1.77846
C -4.43987 -1.18440 1.20591
C -3.60085 -2.33946 1.44786
C -4.11706 -.74626 -2.40966
C -3.19115 -1.16570 -3.39646
C -2.52134 -2.36223 -3.23933
C -4.71556 -.74246 -.07120
C -4.27261 -1.48027 -1.21567
C -3.59969 2.34001 1.43351
C -3.15656 3.11351 .32437
C -4.43900 1.18419 1.19863
C -4.71492 .73482 -.07576
C -4.27219 1.46594 -1.22485
C -4.11711 .72523 -2.41415
