100 

C 3.59800 -3.16575 .25385
C 3.82373 -2.33898 1.34794
C 4.63622 -1.17629 1.11380
C 4.50677 .00545 1.94487
C 3.61857 .01000 2.97456
C 2.44566 -4.02982 .20561
C .24901 -4.59684 .93657
C 1.50661 -4.06748 1.25919
C 1.63640 -3.11747 2.36826
C 2.82791 -2.31219 2.43406
C 2.80850 -1.16837 3.25503
C .25030 4.60098 .89525
C 1.50764 4.07383 1.22262
C 4.63645 1.18016 1.10325
C 2.80875 1.19108 3.24436
C 2.82827 2.32772 2.41286
C 3.82422 2.34531 1.32681
C 1.63712 3.13313 2.33970
C 1.61762 .74770 3.84524
C .43287 1.47920 3.76185
C .44959 2.73409 3.05781
C -2.03132 2.67875 3.06295
C -.83785 3.34739 2.72339
C -.92364 4.26737 1.66782
C -2.01303 -1.37951 3.77005
C -.81634 -.71714 4.01374
C -.81610 .74885 4.00671
C -2.01250 1.40985 3.75705
C -.92487 -4.25587 1.70631
C -.83893 -3.32698 2.75388
C .44883 -2.71166 3.08291
C .43238 -1.45063 3.77547
C 1.61740 -.71904 3.85171
C -2.03221 -2.65463 3.08720
C 3.59883 3.16314 .22558
C 2.44681 4.02729 .16969
C -1.58203 4.65934 -.51044
C -.14622 4.79672 -.45588
C .67310 4.31912 -1.50288
C 2.01655 4.08976 -1.17577
C -2.16327 4.08701 -1.60908
C -3.15184 2.68648 2.19465
C -3.12408 3.39382 .98070
C -2.05665 4.30471 .80822
C 3.87916 2.70963 -1.11181
C 4.47675 1.45627 -1.33536
C 4.93686 .73213 -.18963
C 4.04241 .71869 -2.47304
C 2.83506 3.19309 -1.96012
C -1.32007 3.51675 -2.65566
C .07097 3.53361 -2.58055
C .80655 2.43063 -3.17227
C 2.24450 2.35356 -2.91709
C 2.92241 1.14798 -3.21012
C 4.04201 -.74389 -2.46641
C 4.47600 -1.47226 -1.32234
C 4.93664 -.73896 -.18301
C 3.87831 -2.72362 -1.08758
C 2.92190 -1.17886 -3.19962
C .80603 -2.46011 -3.14992
C 2.24380 -2.38164 -2.89564
C 2.83409 -3.21362 -1.93158
C -1.32062 -3.54163 -2.62384
C .07026 -3.55793 -2.54853
C -2.01335 2.41070 -3.21669
C -1.33483 1.25057 -3.62188
C .10539 1.26620 -3.63051
C .81571 -.01736 -3.76392
C 2.18845 -.01717 -3.63509
C -2.06666 -.01661 -3.61607
C -1.33480 -1.28379 -3.60997
C .10526 -1.29956 -3.61848
C -2.01340 -2.44039 -3.19447
C .67190 -4.33469 -1.46413
C 2.01540 -4.10339 -1.13932
C -.14745 -4.80345 -.41291
C -3.94931 -1.16015 -2.47452
C -3.30938 -2.36669 -2.54852
C -3.32467 -3.24858 -1.42428
C -2.16389 -4.10289 -1.57220
C -1.58314 -4.66622 -.46854
C -3.30943 2.34245 -2.57009
C -3.94940 1.13656 -2.48505
C -3.38974 -.01474 -3.14712
C -4.36680 1.46906 -.07713
C -3.76289 2.79748 -.18801
C -3.32432 3.23425 -1.45364
C -4.53400 .72006 -1.24055
C -3.83422 -1.38810 2.32808
C -3.20431 -.67564 3.39026
C -3.20421 .70341 3.38396
C -4.33879 -.72660 1.20139
C -4.33869 .73540 1.19471
C -3.83409 1.40671 2.31545
C -2.05785 -4.30009 .84694
C -3.76349 -2.80098 -.16253
C -3.12504 -3.38751 1.01143
C -3.15263 -2.66939 2.21894
C -4.53399 -.73282 -1.23384
C -4.36708 -1.47160 -.06361
