100 

C .93586 3.59056 2.61407
C -.14259 2.80783 3.05279
C -1.47992 3.17467 2.60638
C -2.56591 2.23121 2.74723
C -3.72086 2.41419 1.95336
C -4.57083 1.31011 1.58762
C -2.29833 .90854 3.28206
C -3.25171 -.10302 3.05173
C -4.37586 .08928 2.17416
C -.64865 -.89658 3.69319
C .69090 -1.29167 3.83843
C 1.50065 1.00464 3.54823
C .13316 1.46873 3.53557
C -.95039 .50890 3.62606
C 1.74884 -.35533 3.77362
C 2.56920 1.76485 2.92840
C 3.68485 1.07615 2.29078
C 2.27084 3.07268 2.53164
C 4.34567 1.71835 1.22768
C -4.43638 -2.21246 -.73657
C -4.84782 -1.09000 .02388
C -4.58345 -1.13217 1.41448
C -1.57105 -1.89264 3.19605
C -2.87792 -1.47541 2.95179
C -3.70812 -2.10980 1.95393
C -1.08350 -3.10210 2.54597
C -3.20348 -3.16506 1.17819
C -3.69172 -3.26719 -.15403
C -4.92786 .21971 -.63485
C -4.85079 1.38737 .15830
C -3.97005 -2.05757 -2.11846
C -3.94144 -.81345 -2.68885
C -4.47948 .33369 -1.97651
C -1.67661 -4.44237 -.85323
C -2.84463 -3.82383 -1.19329
C -2.87823 -2.96030 -2.34120
C .15012 -4.67508 .52476
C -1.25661 -4.51095 .53726
C 1.16202 -2.55660 3.37691
C .32653 -3.40886 2.61976
C -1.89656 -3.72006 1.51831
C .95498 -4.20958 1.58713
C 2.33127 -4.03758 1.30223
C -3.73988 1.46450 -2.39513
C -3.55180 2.58173 -1.56437
C -4.24294 2.57662 -.32791
C -3.68422 3.27874 .81222
C -2.62340 4.12462 .63855
C -2.67538 1.01409 -3.27011
C -1.44849 1.66375 -3.33346
C -1.26412 2.91349 -2.58699
C -2.32058 3.36227 -1.70628
C -1.98325 4.24119 -.66472
C 1.12830 2.76818 -3.09648
C .06188 3.42191 -2.41135
C -.51217 -4.26196 -1.66656
C -.44748 -3.23533 -2.63148
C -1.67980 -2.54802 -2.97032
C -1.61787 -1.20709 -3.50780
C -2.77226 -.39622 -3.41606
C .88637 -1.31950 -3.51800
C -.35133 -.56559 -3.71628
C -.31280 .87281 -3.74050
C .93685 1.52195 -3.73903
C .78431 4.53290 1.52542
C -1.61041 4.20387 1.64950
C -.45355 4.75290 .99741
C .40619 4.24684 -1.27615
C -.64035 4.65176 -.43876
C 1.92758 4.42074 .65619
C 1.76862 4.21386 -.72469
C 2.47727 2.82572 -2.64952
C 2.81554 3.47797 -1.42624
C 3.90413 2.95081 -.69783
C 3.90381 2.98871 .73476
C 2.91451 3.67973 1.40010
C 3.12562 1.62145 -3.06042
C 4.28081 -.36718 -2.30036
C 4.15722 1.03592 -2.27300
C 4.54401 1.71370 -1.08377
C 2.02256 -3.15404 -2.25095
C .83962 -2.62592 -2.91322
C 3.22994 -2.43702 -2.33364
C 3.29949 -1.18604 -2.98485
C 2.14509 -.61173 -3.56341
C 2.15289 .79982 -3.70446
C 3.94572 -3.13142 -.10090
C 2.80307 -4.01043 -.04867
C 1.88211 -4.06590 -1.12722
C .60673 -4.56214 -.83162
C 4.19091 -2.41811 -1.24788
C 2.56880 -2.40537 3.08471
C 4.10367 -2.50272 1.19221
C 3.15196 -3.13690 2.07262
C 4.83309 .97263 .09431
C 4.73965 -1.08898 -1.15553
C 4.85323 -.44363 .09713
C 4.41956 -1.14060 1.30425
C 3.80089 -.37124 2.38869
C 2.91738 -1.02530 3.25076
