100 

C -3.46094 3.04037 -1.07537
C -3.74077 1.98051 -1.95956
C -4.63625 .98928 -1.49610
C -4.58622 -.35787 -2.02014
C -3.72770 -.64680 -3.04741
C -2.20495 3.77229 -1.16369
C -1.21087 3.43930 -2.12633
C -1.46811 2.34098 -3.04007
C -2.74665 1.63678 -2.97606
C -2.82021 .36580 -3.54476
C .92136 2.29907 -3.55114
C -.35515 1.70134 -3.66472
C 1.86247 4.20797 -.14311
C .48940 4.30526 -.53049
C .11972 3.87203 -1.86422
C 1.15288 3.39131 -2.71817
C -2.08433 -3.73030 -1.82562
C -3.14951 -2.81925 -1.99330
C -3.04675 -1.92057 -3.07533
C -1.79025 -1.72074 -3.72282
C .65623 -1.91898 -3.49813
C -.67113 -2.50142 -3.41156
C -.88895 -3.61581 -2.56538
C 2.97077 -1.95207 -2.71121
C 1.75070 -2.59074 -2.79527
C -.40269 .29043 -4.01341
C -1.64281 -.31568 -4.00140
C 2.14515 1.50962 -3.64352
C 2.07971 .09585 -3.74415
C .79401 -.55450 -3.88433
C 3.16209 -.62617 -3.22137
C -3.94186 -2.44919 -.82411
C -4.74029 -1.29015 -.91826
C -5.07309 -.51181 .23082
C -3.49984 -2.87948 .49249
C -3.88213 -2.12199 1.60361
C -4.66117 -.93331 1.47923
C -.38425 -4.67413 -.56200
C -1.75617 -4.27948 -.51760
C -2.32072 -3.73643 .64048
C .37285 -4.67099 .59665
C -.20166 -4.16167 1.80182
C -1.48654 -3.62569 1.83324
C 1.47715 -3.64176 -1.80629
C .19127 -4.17473 -1.77093
C 1.74567 -4.27968 .54928
C 2.31109 -3.74592 -.61268
C -3.13763 2.16729 2.86228
C -4.11555 1.40772 2.15292
C -4.18691 .03692 2.45345
C -3.16496 -.59659 3.22638
C -.79648 -.52556 3.88902
C -2.08082 .12645 3.74381
C -2.14308 1.53943 3.63252
C 1.64082 -.29044 4.00429
C .40196 .31808 4.01177
C -1.75784 -2.56724 2.81466
C -2.97661 -1.92662 2.72583
C .88004 -3.59954 2.59221
C .66466 -2.47858 3.43033
C -.66162 -1.89294 3.51262
C 1.78539 -1.69758 3.73578
C -4.50898 1.85610 .81112
C -4.97870 .90379 -.11463
C -2.54219 3.36707 2.28984
C -2.89093 3.76753 1.03181
C -3.87220 3.00796 .27197
C -1.14703 3.41246 2.69410
C -1.85505 4.21227 .11354
C -.48178 4.30983 .50037
C -.11284 3.88547 1.83710
C .35761 1.72656 3.65269
C -.91769 2.32567 3.53443
C 2.81960 .38581 3.54255
C 2.74905 1.65302 2.96477
C 1.47202 2.35998 3.02366
C 1.21707 3.45246 2.10227
C 2.21185 3.77682 1.13706
C 3.72482 -.63203 3.05217
C 4.58383 -.35222 2.02276
C 4.63686 .99105 1.48906
C 3.74398 1.98753 1.94549
C 3.46639 3.04163 1.05350
C 2.07524 -3.72168 1.85335
C 3.14222 -2.81133 2.01433
C 3.04142 -1.90434 3.08959
C 4.65732 -.95351 -1.47185
C 3.87579 -2.14156 -1.58746
C 3.49203 -2.89042 -.47085
C 5.07020 -.52367 -.22667
C 4.73585 -1.29307 .92795
C 3.93523 -2.45136 .84251
C 3.14114 2.14076 -2.87768
C 4.11727 1.38384 -2.16290
C 4.18549 .01062 -2.45320
C 3.87715 2.99851 -.29361
C 2.89738 3.75448 -1.05863
C 2.54809 3.34590 -2.31380
C 4.97896 .89471 .10821
C 4.51171 1.84115 -.82448
