100 

C 3.17630 -3.53160 -.25095
C 3.48911 -2.61596 -1.26121
C 4.44223 -1.53568 -.95608
C 4.48611 -.34082 -1.80730
C 4.91334 .90773 -1.24259
C 3.63575 -.27857 -2.91305
C 1.93878 -4.24276 -.24013
C .98186 -4.07398 -1.24211
C 1.27070 -3.13388 -2.31260
C 2.52859 -2.46499 -2.33553
C 2.65982 -1.31885 -3.17642
C -1.13802 -3.07201 -2.85966
C .15199 -2.56471 -3.06495
C -1.42309 -4.01335 -1.78551
C -.40278 -4.42835 -.92112
C -.76680 -4.65078 .43560
C 3.08073 .95986 -3.37088
C 3.34954 2.16342 -2.67699
C 4.30260 2.11971 -1.61699
C 2.30941 3.11807 -2.60541
C .24640 -1.26167 -3.63683
C 1.55124 -.72574 -3.77349
C 1.77571 .69049 -3.87881
C -.88551 -.36798 -3.65694
C .70671 1.58677 -3.70692
C 1.03468 2.85402 -3.16455
C 2.11096 3.91168 -1.39408
C 2.92936 3.69036 -.22980
C 4.11509 2.93968 -.40857
C 4.72986 2.26280 .67047
C 4.13397 2.30077 1.93943
C .75843 4.19444 -1.27968
C .10704 4.25197 -.00365
C .85630 3.93426 1.15563
C 2.28981 3.69373 1.05574
C 2.91756 3.00445 2.11820
C -1.22716 3.51266 2.34401
C .14175 3.40044 2.30056
C -3.32947 3.21832 -1.05156
C -2.02534 3.66254 -1.18248
C -1.33328 4.15826 .00092
C -1.97564 4.02918 1.23936
C -2.27983 -2.28251 -3.08467
C -2.17167 -.89182 -3.35821
C -.65369 1.08388 -3.56790
C -3.24979 -.01713 -2.91633
C -2.97208 1.37831 -2.69767
C -1.64414 1.91202 -2.98013
C -1.24280 3.14571 -2.30849
C .06910 3.56518 -2.40115
C -3.82705 2.11112 -1.85468
C 5.23536 -.12119 .94438
C 4.64054 -.07776 2.27771
C 5.25861 1.00711 .16296
C 4.06798 1.08408 2.73753
C 3.53485 -3.26793 1.12505
C 4.33232 -2.19983 1.42146
C 3.97681 -1.33437 2.51869
C 2.76676 1.02047 3.36140
C 2.02940 -.17262 3.48133
C 2.68752 -1.40800 3.08621
C .43998 -2.53460 3.02698
C 1.88384 -2.58117 2.82076
C 2.40774 -3.56666 1.96061
C -.32679 -3.58247 2.47855
C .21799 -4.47313 1.47848
C 1.53736 -4.38431 1.15654
C -2.37406 -2.25461 2.51481
C -.03970 1.18322 3.47697
C .58491 -.09097 3.55791
C -1.69324 -3.41687 2.17482
C -3.62314 .24236 2.86785
C -2.28834 .10697 3.28966
C -1.64192 -1.19239 3.16842
C -.22634 -1.30383 3.36357
C .74065 2.34075 3.10059
C 2.11261 2.24157 3.06888
C -1.48612 1.29065 3.40825
C -2.04444 2.52858 3.03609
C 4.90711 -1.41134 .35929
C -5.16604 -.16661 1.15303
C -4.27869 -.79354 2.08868
C -3.63181 -1.98930 1.81093
C -5.30593 -.72100 -.11212
C -4.72148 -1.99450 -.39002
C -3.92279 -2.66276 .55574
C -3.35831 2.62780 2.50009
C -5.05297 1.27217 1.32438
C -4.16246 1.49773 2.45338
C -5.11220 .13059 -1.28512
C -4.87775 1.48519 -1.11637
C -4.95015 2.09137 .20677
C -4.02119 3.20737 .21289
C -3.31722 3.53390 1.35916
C -3.32303 -2.79696 -2.22404
C -4.31049 -1.96868 -1.78753
C -4.35780 -.59555 -2.25244
C -1.98463 -4.13095 .92945
C -2.99293 -3.67448 .06591
C -2.74037 -3.77015 -1.32595
