100 

C -4.05805 -1.68660 -1.90109
C -4.24810 -.30219 -1.99125
C -4.91643 .31459 -.90731
C -4.83475 1.74101 -.68879
C -4.11586 2.51773 -1.57080
C -2.99304 -2.34461 -2.62748
C -1.96312 -1.60437 -3.21808
C -2.11674 -.14629 -3.31378
C -3.31188 .47246 -2.79475
C -3.33831 1.87130 -2.62252
C .34156 .01969 -3.77308
C -.96555 .65734 -3.59074
C -1.00283 2.06885 -3.31771
C -2.18534 2.64232 -2.83918
C 1.46374 .83200 -3.82838
C -.64011 -2.20967 -3.28047
C -.46365 -3.49397 -2.73903
C .53015 -1.39408 -3.47897
C -3.96947 3.01709 1.21633
C -3.27318 3.89232 .29217
C -4.72033 1.96597 .74166
C -3.34415 3.64277 -1.08101
C -2.16112 3.73276 -1.86310
C -2.01632 4.22054 .87532
C -.85405 4.36076 .11194
C -.94068 4.14139 -1.31342
C 1.41539 2.24014 -3.51042
C .22118 2.82528 -3.10384
C .26499 3.83533 -2.06704
C 1.49066 4.11759 -1.46065
C -1.87406 1.28428 3.73126
C -3.03172 1.53334 2.99078
C -3.11663 2.80783 2.36476
C -1.95389 3.60130 2.19242
C 1.56832 4.23676 -.01230
C .43871 4.19398 .78314
C .52255 3.53461 2.08570
C -.72021 3.22741 2.76569
C -.75300 2.15385 3.67446
C -3.76491 .39624 2.43043
C -4.64381 .66359 1.38266
C -1.38645 -.06323 3.93722
C -2.01005 -1.18475 3.32105
C -3.23587 -.97473 2.57763
C -3.67429 -1.99612 1.67954
C -2.95253 -3.22202 1.62919
C -.00674 -.00501 4.11291
C .84308 -1.08218 3.75053
C .25210 -2.27217 3.24999
C -1.19163 -2.33162 3.08422
C -1.73077 -3.37304 2.29660
C 2.44560 -2.95841 2.41827
C 1.08828 -3.20566 2.50468
C 3.82564 .86382 2.61867
C 2.64346 .61690 3.30888
C 2.23537 -.76950 3.50960
C 3.04306 -1.78494 2.98910
C 2.81191 3.67085 .41217
C 2.89397 2.96144 1.61927
C 1.71467 2.83617 2.45139
C 1.63687 1.68788 3.35814
C .41578 1.37437 3.92074
C 3.93816 2.00853 1.72562
C -4.46778 -1.64898 .51023
C -4.90214 -.32654 .36716
C -2.91296 -4.05698 .43011
C -3.50964 -3.60405 -.72632
C -4.29393 -2.38838 -.69143
C -1.60717 -4.68527 .37092
C -2.75902 -3.60286 -1.97196
C -1.51096 -4.17752 -2.03180
C -.93606 -4.80115 -.85080
C .50292 -4.08973 1.49901
C -.87992 -4.26673 1.51852
C .47006 -4.59476 -.89466
C 1.21119 -4.31593 .26173
C 4.33457 -2.44056 1.15560
C 3.21636 -3.32163 1.23304
C 2.54204 -3.75623 .08605
C 4.76361 -1.98461 -.09008
C 4.01964 -2.34465 -1.25068
C 2.91739 -3.19605 -1.19318
C 5.16066 .25994 .80740
C 4.63722 -.18933 2.08493
C 4.24770 -1.50525 2.26311
C 5.20512 -.61178 -.25964
C 3.53807 3.24627 -.74638
C 4.39276 2.13324 -.69413
C 4.70617 1.63072 .60420
C 3.51337 1.42816 -2.89394
C 2.67561 2.61015 -2.94879
C 2.70793 3.52229 -1.90672
C 4.75543 -.16010 -1.57379
C 4.39781 1.19559 -1.82270
C .76925 -3.85365 -2.11833
C 1.89342 -3.06442 -2.23423
C 1.81124 -1.86690 -3.04885
C 4.04348 -1.21966 -2.17522
C 2.94582 -.96576 -3.03744
C 2.77025 .35155 -3.46975
