100 

C -3.91655 -1.28258 1.91533
C -4.70612 -.26601 1.38083
C -1.83219 -3.14187 2.53548
C -1.80392 -1.87455 3.16946
C -2.87081 -.92653 2.87948
C -2.66808 .44537 3.19437
C -1.49274 .81384 3.89461
C -.65677 -3.84519 2.26819
C .62482 -3.32724 2.62258
C .68706 -2.11791 3.37085
C -.54944 -1.43425 3.69196
C -.46957 -.09860 4.15212
C 3.05291 -1.87499 2.75861
C 1.95214 -1.36703 3.42228
C 2.95818 -3.05024 1.93332
C 1.76073 -3.75934 1.82513
C 1.52743 -4.42927 .58414
C -3.36403 1.49610 2.47167
C -4.43025 1.12154 1.65279
C -4.82061 1.89434 .50465
C -2.67428 2.74871 2.18731
C -3.02358 3.45376 1.03511
C -4.07854 3.01748 .17127
C .49416 2.00913 4.04659
C -.89627 2.13643 3.74877
C -1.35251 3.00283 2.75625
C 1.41608 2.82789 3.41092
C .96214 3.72187 2.39048
C -.37338 3.77523 2.00378
C 1.97215 .06176 3.74205
C .79020 .62483 4.21589
C 2.68050 2.29849 3.01345
C 2.97377 .93663 3.13974
C -4.84967 1.16704 -1.84146
C -3.96838 2.27441 -2.15996
C -5.27757 .98315 -.52733
C -3.64304 3.21089 -1.19947
C -2.31084 3.76304 -1.17031
C 1.10521 3.05537 -2.56404
C 2.43647 3.24074 -2.19230
C .05998 3.61001 -1.70941
C -1.30939 3.35219 -2.06127
C -1.62552 2.28075 -2.99841
C -2.92420 1.78365 -3.03252
C -.66262 4.11407 .60792
C -1.97718 4.02333 .19208
C 2.03824 3.86582 1.42570
C 1.76041 4.03865 .04839
C .37953 4.06694 -.39688
C 2.76608 3.67777 -.85404
C -5.00150 -1.44737 -.74344
C -4.50328 -1.25474 -2.09203
C -5.28107 -.34844 .04580
C -4.38514 .02437 -2.60281
C -3.17094 .38713 -3.28092
C .33296 -.87640 -3.67510
C 1.59113 -.33867 -3.87579
C -.79065 .03344 -3.65101
C -2.10728 -.51045 -3.43120
C -2.25388 -1.87090 -2.94811
C -3.45702 -2.21257 -2.31965
C .78622 1.93520 -3.43341
C -.56180 1.42783 -3.48194
C 1.81612 1.08011 -3.83374
C -2.80037 -3.43700 1.48717
C -3.81980 -2.52584 1.15829
C -4.29900 -2.56848 -.17128
C -3.45784 -3.11618 -1.18736
C -2.33166 -3.86711 -.86823
C -2.16578 -4.21800 .50389
C .17935 -4.74475 .15740
C -.86330 -4.57397 1.02113
C 1.42396 -2.82977 -2.58480
C -1.15202 -3.74564 -1.71500
C 1.29586 -3.88546 -1.66607
C .03959 -4.32548 -1.23265
C .22750 -2.21077 -3.08806
C -1.06229 -2.68591 -2.67620
C 3.79711 .00708 -3.21716
C 2.79850 -.99929 -3.42950
C 2.71945 -2.14996 -2.65004
C 4.70739 -.14717 -2.18156
C 4.67009 -1.33663 -1.38474
C 3.71259 -2.34272 -1.59743
C 4.42079 2.20259 -1.53863
C 3.49146 2.37309 -2.64003
C 3.18452 1.29952 -3.45817
C 5.00512 .97660 -1.30564
C 3.10880 3.04299 1.83527
C 4.01479 2.49547 .90266
C 3.93612 2.98181 -.42169
C 4.60325 -1.68508 1.04268
C 4.08221 -1.01632 2.19308
C 3.99431 .37445 2.25358
C 5.06087 -.95569 -.03103
C 5.10669 .47166 .05337
C 4.53767 1.15578 1.14669
C 2.24400 -4.03680 -.56091
C 3.39155 -3.22174 -.47420
C 3.83946 -2.89125 .82088
