100 

C 4.71649 -1.24740 -.75529
C 4.29881 -2.53941 -.36142
C 4.52522 1.54506 -1.44626
C 4.17770 .59013 -2.36523
C 4.32291 -.81935 -2.04880
C 3.76432 2.76217 -1.37324
C 3.30573 -1.51022 -2.75178
C 2.79546 -2.73100 -2.30189
C 3.42928 -3.31077 -1.17145
C 2.67410 -4.17950 -.28795
C 1.44957 -4.63104 -.67010
C 2.43539 -.53784 -3.38575
C 1.07324 -.74846 -3.53608
C .52050 -2.07095 -3.18573
C 1.40095 -3.05583 -2.60195
C .83615 -4.13565 -1.90001
C -1.77266 -1.10252 -3.41912
C -.89550 -2.23240 -3.07967
C -1.44192 -3.34100 -2.33165
C -.55598 -4.26298 -1.75040
C -3.11787 -1.16997 -3.05425
C -1.20385 .21299 -3.70273
C .22519 .41980 -3.63932
C -2.03134 1.33528 -3.62962
C 1.83120 4.49487 -.35550
C 1.60594 3.90191 -1.61558
C 2.58081 2.95105 -2.11575
C 2.14668 1.87616 -2.99995
C 2.97631 .76161 -3.14081
C .25179 3.88030 -2.13237
C -.15103 2.82065 -3.04936
C .75259 1.72390 -3.35020
C -1.51131 2.62030 -3.26509
C -1.97660 -4.50380 .22508
C .41487 -4.79959 .31535
C -.80964 -4.81058 -.41850
C -3.03890 -3.84079 -.49597
C -3.60671 -2.17985 -2.13948
C -2.78305 -3.25943 -1.75297
C -1.93573 -3.98504 1.56220
C -.72137 -3.64821 2.17267
C .50048 -4.13378 1.55916
C 1.77695 -3.55637 1.93447
C 2.88070 -3.75402 1.07354
C 3.98105 -2.84176 1.03638
C 1.80633 -2.43370 2.84612
C 2.96811 -1.65295 2.89147
C 4.05464 -1.84178 1.97508
C .58777 -.48080 3.77985
C -.62816 .15788 4.05262
C -1.92258 -1.78485 3.32843
C -.69661 -2.48696 3.06767
C .56674 -1.84830 3.34815
C -1.85202 -.48812 3.89117
C -3.12625 -3.19116 1.73236
C -4.12039 -1.08512 2.34466
C -3.15216 -2.11972 2.61079
C -4.51940 -1.58216 -1.25103
C -4.56173 -1.99475 .11035
C -3.82623 -3.13704 .47044
C -4.75720 -.98947 1.10468
C 4.89296 1.13714 -.08909
C 4.93978 -.23065 .27962
C 4.59663 -.54060 1.61701
C 3.94891 .42385 2.43217
C 3.78056 1.75084 2.01961
C 4.40467 2.12457 .79831
C 2.86199 3.99549 .50732
C 3.84509 3.20018 -.00597
C 1.74419 .37736 3.54360
C 2.92162 -.24533 3.19969
C -.80891 1.58655 3.78956
C .25999 2.38362 3.27407
C 1.57753 1.80944 3.22123
C 2.60055 2.47921 2.48193
C 2.26678 3.68164 1.80679
C -1.46113 3.66007 1.98063
C -.09043 3.51692 2.48482
C .95465 4.17984 1.79973
C -1.66367 4.36632 .76855
C -4.29711 1.19060 1.75081
C -3.90939 .26893 2.81222
C -2.83554 .54746 3.59408
C -3.55075 2.40453 1.49149
C -2.46882 2.73956 2.38191
C -2.12984 1.80814 3.43341
C -4.65570 -.17203 -1.62322
C -4.12197 2.13339 -.93657
C -4.71027 .84634 -.65197
C -4.83672 .43361 .72637
C -2.66561 3.97191 -.14012
C -3.57694 2.93352 .16692
C -2.13142 4.14443 -1.48610
C -2.52001 3.28212 -2.47147
C -3.60423 2.35160 -2.23549
C -3.37614 1.25156 -3.11269
C -3.90075 .01232 -2.81450
C .72554 4.80722 .50409
C -.53570 4.86004 -.00890
C -.75284 4.53364 -1.39107
