100 

C 2.51511 -2.80262 2.49849
C 2.62140 -1.42853 2.77386
C 3.73498 -.71090 2.15315
C 3.73474 .72471 2.14885
C 4.53676 1.38971 1.19532
C 4.15294 2.68520 .68923
C 2.62089 1.44558 2.76513
C 2.51432 2.81804 2.48150
C 3.22704 3.41494 1.36400
C 1.29045 -3.49248 2.62570
C .23523 1.46907 3.45642
C -1.00614 -.71192 3.70322
C .14268 -2.84861 3.09037
C .23556 -1.44863 3.46552
C 1.45841 -.72928 3.27385
C 1.45818 .74888 3.26926
C -2.23025 -1.37608 3.52324
C -2.29845 -2.68116 2.90697
C -1.14249 -3.43869 2.70948
C -1.19900 -4.41997 1.69142
C .01799 4.87845 1.01934
C 2.32066 4.25844 .63560
C 1.22706 4.49813 1.52827
C -1.19960 4.42922 1.66405
C -2.29890 2.69798 2.89036
C -1.14302 3.45433 2.68813
C -1.00622 .73371 3.69863
C .14210 2.86682 3.07267
C 1.28966 3.50843 2.60435
C -2.23040 1.39675 3.51465
C -.18593 4.87754 -.40353
C .75917 4.27535 -1.25822
C 2.08298 4.01454 -.73331
C 2.97145 3.10307 -1.43832
C 4.11166 2.63345 -.75733
C 4.78503 1.42330 -1.13576
C 2.45021 2.30496 -2.53753
C 3.15619 1.16168 -2.91750
C 4.34658 .72186 -2.24404
C -1.59997 4.70386 -.59994
C .26773 3.49846 -2.39150
C 1.05021 2.39605 -2.91710
C -2.05532 4.09324 -1.73454
C -1.10294 3.50908 -2.65205
C -3.36374 2.69997 1.95532
C -3.25986 3.41941 .75212
C -2.21735 4.37361 .67414
C 5.10837 -.68683 .08909
C 4.78528 -1.42783 -1.12724
C 5.10815 .68945 .08504
C 4.34654 -.73301 -2.23951
C 3.15606 -1.17717 -2.90989
C .26834 -3.51153 -2.36916
C -1.10215 -3.52456 -2.62976
C 1.05039 -2.41194 -2.90150
C 2.45031 -2.31830 -2.52279
C 2.97188 -3.11002 -1.41921
C 4.11229 -2.63614 -.74161
C -1.75104 2.41002 -3.29766
C -1.04803 1.25209 -3.63342
C .38932 1.26040 -3.48741
C 1.09284 -.01002 -3.57862
C 2.45737 -.00926 -3.37383
C -1.77727 -.01107 -3.71028
C -1.04773 -1.27340 -3.62505
C .38948 -1.28006 -3.47896
C -1.75035 -2.42965 -3.28203
C 3.22803 -3.40564 1.38446
C 4.53725 -1.38101 1.20349
C 4.15372 -2.67961 .70515
C 2.08367 -4.01766 -.70855
C .75986 -4.28195 -1.23148
C 2.32157 -4.25385 .66153
C 1.22793 -4.48866 1.55562
C .01885 -4.87271 1.04927
C -.18505 -4.87993 -.37346
C -3.75600 -1.15776 -2.76110
C -3.10646 -2.36472 -2.77897
C -3.22996 -3.25354 -1.66936
C -2.05441 -4.10376 -1.70882
C -1.59916 -4.70785 -.57072
C -3.10720 2.34737 -2.79414
C -3.75643 1.14028 -2.76849
C -3.14221 -.01050 -3.37822
C -4.37539 1.47168 -.40545
C -3.77859 2.80588 -.46780
C -3.23070 3.24294 -1.68996
C -4.44343 .72195 -1.57936
C -4.01099 -1.39112 2.02528
C -3.40552 -.67827 3.10810
C -3.40563 .69640 3.10384
C -4.43655 -.73064 .86866
C -4.43659 .73500 .86402
C -4.01114 1.40253 2.01653
C -2.21680 -4.37028 .70132
C -3.77827 -2.80954 -.44996
C -3.25956 -3.41589 .77361
C -3.36347 -2.68901 1.97218
C -4.44324 -.73251 -1.57466
C -4.37532 -1.47515 -.39603
