100 

C -1.71984 2.97731 -2.95948
C -1.69998 3.84924 -1.83023
C -2.83967 3.84604 -1.00840
C -2.71769 4.08850 .40927
C -1.50934 4.49798 .92232
C -.48759 2.39886 -3.45518
C .76474 2.71284 -2.92139
C .84732 3.70028 -1.84758
C -.39970 4.23492 -1.27410
C -.37496 4.69259 .04499
C 3.19550 3.03317 -1.54973
C 2.05956 3.79346 -1.11263
C .18481 .06414 -3.88255
C -.76954 1.09894 -3.93400
C 2.04937 -1.96305 -3.26822
C 2.49497 -.65867 -3.22146
C 1.53636 .41052 -3.54319
C 1.81737 1.75201 -3.11940
C 3.06384 2.01880 -2.49945
C -2.99289 2.45830 2.23844
C -1.68523 2.84947 2.74613
C -3.49808 3.12367 1.11242
C -1.03529 3.92739 2.14067
C .40641 4.02277 2.12307
C 2.55688 3.02353 2.37516
C 1.21247 3.07622 2.77422
C .59912 1.90324 3.37335
C -.85113 1.86940 3.45263
C -1.45058 .68238 3.82535
C 2.99579 3.64552 1.17650
C 2.03474 4.18989 .28729
C .80107 4.53552 .85317
C 4.15744 2.92123 .70048
C 4.28340 2.66299 -.64892
C -2.81210 .34350 3.44906
C -3.53336 1.13584 2.54522
C -4.44055 .48050 1.62048
C -2.90238 -1.07548 3.44356
C -3.77829 -1.70070 2.58134
C -4.56772 -.92186 1.68919
C -1.54263 -4.29227 1.13338
C -3.34547 -2.91642 1.90066
C -2.04880 -3.46937 2.13388
C 3.35395 1.84860 2.61334
C 2.75984 .66210 3.05303
C 1.35940 .69188 3.47688
C .66917 -.56606 3.65651
C -.69517 -.52367 3.93465
C -1.56730 -1.62238 3.66187
C 1.22509 -1.81969 3.17494
C .34140 -2.89107 2.81336
C -1.10022 -2.75457 3.00864
C -4.75250 1.12470 .34290
C -4.29724 2.42294 .12366
C -4.74286 -1.73156 .48982
C -4.87247 -1.13469 -.72685
C -4.96372 .30661 -.81513
C -3.91720 -2.92568 .61567
C -3.18227 -3.43941 -.49942
C -2.09000 -4.26405 -.18931
C -4.42525 .67336 -2.05594
C -3.84039 1.95347 -2.25035
C -3.87882 2.86248 -1.17896
C -2.74820 2.05167 -3.16622
C -3.83634 -.52457 -2.67760
C -1.66947 -1.53664 -3.36983
C -2.60780 -.43860 -3.41995
C -2.15357 .84341 -3.74583
C .66412 -2.29012 -3.49789
C -.30769 -1.28237 -3.73096
C -3.16501 -2.70602 -1.74370
C -4.09621 -1.61412 -1.86795
C -1.02635 -4.45643 -1.10704
C -.94429 -3.67037 -2.26892
C -1.99301 -2.71558 -2.56565
C .36388 -3.46146 -2.81537
C .17252 -4.76386 -.32811
C 2.48800 -4.20719 .09136
C 1.47973 -4.49869 -.83823
C 1.57641 -3.91076 -2.13202
C 3.38084 -.59428 2.67501
C 2.60496 -1.82831 2.71993
C 3.04592 -2.90886 1.94789
C 2.13206 -3.89040 1.46179
C .80964 -3.91491 1.89242
C -.12780 -4.56000 1.02347
C 4.98107 .67259 1.25115
C 4.42720 1.86359 1.65892
C 4.75795 -1.57990 .86255
C 4.52290 -.55120 1.84447
C 4.05902 -2.74655 .93697
C 4.80515 1.38299 -1.09112
C 4.99155 -.95073 -.42840
C 5.22662 .43433 -.16808
C 2.60923 -3.00516 -2.42716
C 3.61612 -3.40414 -.27004
C 3.63689 -2.70356 -1.49358
C 4.26171 -1.38368 -1.55429
C 3.71165 -.37507 -2.44580
C 4.02336 .96225 -2.20898
