100 

C -4.92708 .96745 -.61773
C -2.25225 4.15232 .01438
C -3.32439 3.30424 -.30607
C -4.00048 2.72345 .79058
C -4.84352 1.56143 .62650
C -1.67011 4.14082 1.30357
C -2.08558 3.20416 2.26800
C -3.34007 2.61334 2.05042
C -1.08390 2.51152 3.07268
C -1.44500 1.23090 3.62586
C -.43052 .41947 4.12301
C -.28805 4.50304 1.17501
C 2.02275 3.94170 1.48161
C .68618 3.91415 1.98036
C .30675 2.87083 2.93891
C 1.33288 1.96536 3.40588
C .92755 .79401 4.05043
C -4.93118 -1.26520 .39947
C -4.72727 -.64875 1.69530
C -4.96962 -.47777 -.73340
C -4.68169 .73267 1.80706
C -3.68437 1.33169 2.63295
C -3.78194 -1.44102 2.41252
C -2.76563 -.87228 3.18339
C -2.71171 .57604 3.29405
C -2.51268 -3.89013 -.63925
C -3.51415 -2.93845 -.80955
C -4.16521 -2.49373 .37702
C -3.52145 -2.63474 1.62660
C -.50349 -1.03065 4.04527
C -1.55889 -1.67258 3.43137
C -1.28683 -2.90010 2.67380
C -2.30943 -3.35426 1.75091
C -1.94495 -4.14400 .65332
C -3.42822 -2.03956 -1.95577
C -4.17589 -.85119 -1.89700
C -1.49303 -4.09789 -1.63325
C -1.31628 -3.20199 -2.68694
C -2.27907 -2.08942 -2.83130
C -1.88012 -.89822 -3.51934
C -.58497 -.86405 -4.14343
C -.36938 -4.70687 -.94952
C .89576 -4.57816 -1.44997
C 1.11249 -3.77371 -2.62822
C .03296 -3.08580 -3.24055
C .36739 -1.93729 -3.96459
C 2.00055 -4.37740 -.54473
C 2.78262 -3.53413 1.55513
C 1.78089 -4.21450 .84500
C .83102 -1.53253 3.97157
C 1.13097 -2.68020 3.21894
C .05613 -3.36529 2.51423
C .40992 -4.21217 1.36437
C -.59835 -4.58771 .47974
C 2.46968 -2.79841 2.77014
C -2.50866 .36762 -3.23497
C -3.69139 .34551 -2.49551
C -4.10812 1.47134 -1.70686
C .11933 .31978 -4.29783
C -.43321 1.58107 -3.88516
C -1.76254 1.61994 -3.30251
C -2.13012 2.71607 -2.45973
C -3.29691 2.59603 -1.58522
C -1.14299 3.75438 -2.16319
C -1.22039 4.46226 -.94503
C .48272 2.58235 -3.60160
C .13929 3.67768 -2.75909
C 1.66768 -1.37275 -3.90224
C 1.53831 .03043 -4.11534
C 1.31558 4.07865 -2.08015
C 1.24124 4.58070 -.76166
C -.03999 4.78933 -.21335
C 2.29759 4.25062 .13752
C 2.39124 3.17562 -2.46688
C 3.41290 2.77008 -1.52643
C 3.43009 3.43449 -.29635
C 2.38689 -3.16092 -2.49563
C 2.64864 -1.88136 -3.03016
C 4.17898 -1.42084 -1.10486
C 3.52664 -.95167 -2.32018
C 3.40720 .45679 -2.56833
C 2.39263 .93364 -3.50597
C 1.89745 2.28783 -3.40518
C 4.74991 -.47779 -.25196
C 4.65155 .92009 -.50888
C 3.95787 1.41387 -1.61957
C 4.27987 -1.80208 1.74978
C 3.84380 -2.87686 .89139
C 3.81765 -2.71855 -.52017
C 2.94923 -3.56219 -1.21860
C 4.76679 -.65468 1.19748
C 1.72304 -.42176 4.02229
C 2.97022 -.46441 3.39965
C 3.38239 -1.72708 2.88512
C 3.94828 2.79845 .87974
C 3.01919 3.00191 1.95024
C 2.69945 1.98539 2.84748
C 4.61349 1.60049 .77160
C 4.48315 .63004 1.81170
C 3.50228 .76468 2.81361
