100 

C 4.74661 -1.06162 -.04340
C 4.37903 -1.59020 1.21772
C 4.14185 .08985 -2.57231
C 4.10533 -1.26286 -2.43726
C 4.46960 -1.86920 -1.16842
C 3.03208 .77473 -3.20753
C -.66813 -1.33501 -3.43399
C -.67369 .09285 -3.55861
C 1.83643 .10409 -3.53453
C 1.84379 -1.35110 -3.47060
C 3.01082 -2.00245 -3.01327
C .60498 2.21362 -3.10778
C .59868 .83776 -3.50822
C -3.07819 2.73532 -2.41869
C -1.92060 2.20953 -3.03441
C -1.91329 .80377 -3.40661
C -3.09892 .06536 -3.19716
C 2.92810 -3.21560 -2.26443
C 3.72342 -3.07877 -1.05346
C 3.18902 -3.48766 .18722
C 3.59015 -2.75518 1.32466
C 1.74611 -3.90325 -2.22397
C -1.85566 -2.01893 -2.97868
C .59288 -2.06184 -3.39566
C .59581 -3.37010 -2.89019
C -3.04397 -1.31104 -2.89148
C 1.31264 -4.54473 -.99334
C 1.91057 -4.19768 .23173
C 2.69350 -2.58831 2.45837
C 2.99624 -1.33188 3.07055
C -.10397 -4.70174 -1.10520
C -.88200 -4.74039 .03524
C -.28256 -4.43308 1.29965
C 1.05513 -4.06547 1.40913
C 1.41906 -3.12316 2.48417
C .37957 -2.40714 3.23224
C 1.98527 -.57149 3.67952
C 2.18890 .82467 3.74193
C -1.76866 -3.24957 -2.20023
C -.56223 -3.92787 -2.22754
C -2.20365 -4.19142 .01856
C -2.66902 -3.45367 -1.07030
C 4.03631 -.71104 2.32191
C 3.26299 1.43796 3.06336
C 4.11939 .68187 2.20977
C 2.83372 2.77267 2.70516
C 3.31058 3.34678 1.56244
C .16981 4.65156 .07056
C 2.40754 4.13897 .74649
C 1.04585 4.32168 1.10776
C -.26405 1.27543 3.70576
C 1.05383 1.74104 3.72642
C 1.42906 2.91473 3.06442
C -.88396 3.22181 2.29271
C .50109 3.61583 2.26098
C -1.27503 2.07519 3.06830
C -1.31434 -3.83875 2.13102
C -.99752 -2.83751 3.08158
C .64234 -1.10276 3.74300
C -2.03674 -1.97392 3.45249
C -1.75162 -.62090 3.84222
C -.46211 -.15452 3.92466
C 4.20160 2.60322 .68383
C 4.55766 1.26563 .93594
C 4.82997 .39477 -.20161
C 3.92541 3.06210 -.64188
C 4.08340 2.21063 -1.70807
C 4.64884 .91832 -1.49889
C 2.77425 3.94658 -.60685
C 1.77740 3.87959 -1.61347
C .53167 4.40785 -1.28507
C 1.82916 2.81937 -2.62042
C 3.02054 2.09542 -2.71201
C -.66229 2.89492 -2.83672
C -.65243 4.02836 -2.01205
C -1.75456 4.30475 -1.14142
C -3.72002 3.23523 -.21566
C -2.95266 3.68604 -1.34935
C -3.83865 -.64334 2.86085
C -2.83988 .22405 3.41446
C -2.61171 1.50785 2.90880
C -4.66998 -.18298 1.87429
C -4.58628 1.19241 1.47005
C -3.53080 2.02295 1.90871
C -3.10255 3.10590 1.04640
C -1.79607 3.72220 1.25406
C -1.24964 4.45832 .19911
C -2.50152 -3.75319 1.37353
C -3.47536 -2.76078 1.62436
C -3.29869 -1.98375 2.78499
C -4.81062 -.42854 -1.66236
C -4.05940 -1.61768 -1.88273
C -3.77841 -2.52281 -.85397
C -5.23576 -.11658 -.37343
C -4.93023 -1.00744 .69914
C -4.21931 -2.20665 .49264
C -4.62356 2.23722 -.72120
C -4.21579 1.91260 -2.08540
C -4.25162 .60953 -2.51394
C -5.08016 1.24830 .11739
