100 

C -3.99290 2.23733 -2.15133
C -4.65509 1.05837 -1.95004
C -4.13472 -.15379 -2.53767
C -2.76302 -2.57727 -2.55106
C 1.37738 -2.70081 -3.11482
C -.00140 -2.69122 -3.00931
C -.71826 -1.48880 -3.36890
C -2.15376 -1.46065 -3.14620
C -2.85901 -.20320 -3.14388
C .00565 -.27149 -3.56447
C -2.10396 1.03459 -3.29473
C -2.74210 2.23543 -2.88574
C -5.00435 1.58533 .42203
C -4.31072 2.85055 .21916
C -5.21070 .72941 -.63570
C -3.88376 3.21242 -1.07664
C -2.66148 3.88060 -1.23242
C -1.86620 4.22586 -.10129
C -.52929 4.58647 -.36775
C 2.09301 -1.54785 -3.51912
C 1.44455 -.29931 -3.59157
C -.67707 1.01547 -3.41936
C 1.53494 2.11280 -2.89197
C .09328 2.19277 -3.06934
C -.58873 3.32652 -2.52767
C -1.98761 3.31310 -2.41359
C .09670 4.22375 -1.65053
C -3.54376 -.75395 2.90393
C -4.42042 -.36248 1.88284
C -4.56099 1.03833 1.68512
C -2.17508 3.67196 1.18139
C -3.43816 3.04419 1.31305
C -3.62294 1.94808 2.23675
C -1.09232 3.31205 2.09250
C -2.55786 1.50719 3.04816
C -2.64260 .17591 3.49761
C -4.65906 -1.27650 .76048
C -5.07282 -.70459 -.45302
C -2.90624 -2.05628 2.91095
C -3.10680 -2.97506 1.84085
C -3.97957 -2.58050 .72970
C -2.07987 -3.91033 1.62509
C -1.65786 -1.92759 3.54235
C 2.17219 -.22347 3.68130
C .93688 -.81832 3.75151
C .78662 -2.18492 3.24521
C -.54704 -2.73171 3.16441
C -.80772 -3.78743 2.28469
C 1.20311 2.03338 3.29303
C -.22630 .06792 3.86658
C -1.47248 -.53007 3.88100
C 2.31974 1.20882 3.53451
C -.12335 1.47581 3.49422
C .44055 4.55043 .62897
C .21512 3.79684 1.83098
C -1.26684 2.16460 2.99718
C 1.37814 3.19831 2.47442
C 2.66292 3.43996 1.92172
C -1.82842 -4.45912 .31198
C -2.61455 -4.04785 -.74687
C -3.75005 -3.18247 -.51878
C -3.93048 -2.43177 -1.73474
C -4.59251 -1.23154 -1.70907
C -.41876 -4.60276 .13575
C -1.97833 -3.64100 -1.96462
C -.60079 -3.68200 -2.12277
C .20460 -4.26438 -1.06865
C 3.57352 -3.24349 .22141
C 2.30800 -3.83463 .22203
C 1.63674 -4.01856 -1.04391
C 2.21588 -3.47589 -2.20090
C 3.29141 -.86729 3.04975
C 3.11874 -2.09511 2.38967
C 1.83518 -2.76703 2.47288
C 1.50565 -3.74801 1.44661
C .21475 -4.24271 1.39322
C 3.98948 -2.36857 1.30960
C 4.97760 -1.61106 -.64882
C 4.20271 -2.79459 -.97457
C 3.49798 -2.86503 -2.17822
C 4.99269 -.54052 -1.51868
C 4.15222 .14031 2.53691
C 4.83338 -.04771 1.31529
C 4.83506 -1.36484 .78040
C 4.41054 2.34524 .78297
C 3.73471 2.52098 2.07552
C 3.57430 1.42873 2.90434
C 4.95710 .81445 -.99927
C 4.93459 1.08417 .38606
C 1.71120 4.47086 -.05666
C 4.15538 1.59370 -1.89030
C 3.49157 2.74153 -1.46336
C 3.78351 3.20105 -.14453
C 2.80114 3.98687 .58580
C 3.44439 -1.69484 -3.03839
C 4.16504 -.57070 -2.71478
C 3.55726 .72466 -2.87324
C 2.21907 .88612 -3.25838
C 2.21253 3.06878 -2.07625
C 1.45646 4.10825 -1.44763
