100 

C -2.80107 -3.24398 1.81727
C -3.63532 -2.76819 .76433
C -4.42860 -1.63385 1.05838
C -4.99688 -.85528 .03486
C -4.70942 -1.16613 -1.30717
C -1.71751 -4.06393 1.56110
C -1.25008 -4.27570 .21294
C -1.98944 -3.71012 -.86275
C -3.25088 -3.03499 -.58892
C -3.81990 -2.22758 -1.60275
C -.00483 -3.85386 -2.29035
C -1.31019 -3.43478 -2.13136
C .74237 -4.42530 -1.20615
C .15944 -4.59221 .04926
C 1.04105 -4.51005 1.17261
C -4.78908 1.54054 -.43048
C -4.49308 1.23061 -1.82171
C -4.98415 .53060 .47679
C -4.44754 -.08283 -2.24733
C -3.38039 -.49397 -3.11200
C -3.48360 2.15301 -2.25899
C -2.43970 1.77732 -3.09562
C -2.39184 .39182 -3.55580
C -1.77079 -2.34934 -2.99945
C -3.03357 -1.83738 -2.76568
C .92500 -3.16332 -3.16331
C .56760 -1.96681 -3.81964
C -.82190 -1.53764 -3.74534
C -1.14620 -.17685 -4.00576
C -.09407 .74166 -4.30596
C -2.37174 3.70466 1.39154
C -3.40377 2.79187 1.25410
C -3.98488 2.68815 -.05376
C -3.25417 3.10349 -1.18033
C -.13707 2.10503 -3.79383
C -1.20356 2.58009 -3.06711
C -.94740 3.54993 -1.98783
C -2.01363 3.78889 -1.04411
C -1.71016 4.26507 .23573
C -3.43908 1.64590 2.15031
C -4.30586 .57717 1.77317
C -.25032 4.30790 2.02159
C -1.41570 3.58345 2.44894
C -1.31464 2.40213 3.20109
C .96575 4.00107 2.55634
C 2.13648 3.98285 1.69951
C 3.01853 3.58294 -.48923
C 2.01219 4.16432 .30477
C 1.20981 2.51703 -3.53199
C 1.50266 3.37172 -2.43595
C .39623 3.89276 -1.63132
C .68867 4.38523 -.28599
C -.37479 4.58273 .59941
C 2.78296 3.25165 -1.87436
C 1.06675 2.93427 3.51439
C -.01718 2.06116 3.75749
C -2.33910 1.38060 3.03111
C -.73407 -.35352 3.93780
C -2.05585 .01021 3.44256
C -2.92769 -1.02738 2.99809
C -4.03071 -.72748 2.15377
C -2.47811 -2.37504 2.96776
C 2.41139 2.44498 3.41063
C 2.68228 1.14966 3.74586
C 1.62097 .30404 4.21183
C .27410 .68677 4.11645
C -.31239 -1.72140 3.90158
C -1.22344 -2.71672 3.43696
C 3.92156 2.63808 .04308
C 3.84355 2.22565 1.38622
C 3.03858 3.01808 2.23415
C 2.03311 -1.04259 3.94270
C 1.10338 -2.05885 3.82252
C 1.52145 -3.21094 3.07641
C .54785 -4.10367 2.47746
C -.77721 -3.86929 2.65850
C 3.21392 -1.00815 3.11253
C 3.94461 -1.53907 .82112
C 3.40603 -1.95657 2.10358
C 2.61429 -3.13928 2.20459
C 3.95168 -1.92259 -1.61575
C 3.73119 -2.42896 -.34425
C 4.27683 1.71044 -1.00407
C 4.28586 -.54060 -1.82800
C 4.46141 .34526 -.73582
C 4.28842 -.16304 .62778
C 4.06824 .80960 1.70191
C 3.58216 .35272 2.92735
C 2.06344 1.46305 -3.91345
C 3.69367 -.12015 -3.04023
C 3.27105 1.22359 -3.20580
C 3.63618 2.14989 -2.20516
C 2.22403 -3.34877 -2.62257
C 3.18530 -2.36007 -2.77221
C 2.90841 -1.23172 -3.57674
C 1.60900 -1.01430 -4.09980
C 1.23333 .34599 -4.36031
C 2.32123 -3.95264 1.02963
C 2.84961 -3.60489 -.23534
C 2.11080 -4.03171 -1.35503
