100 

C 3.78488 1.76479 -2.02815
C 2.60865 2.54209 -2.42310
C 4.46229 2.12999 -.84991
C 2.29362 3.68022 -1.68796
C .94324 4.18239 -1.60930
C -.12917 3.54667 -2.23924
C .15404 2.36270 -3.04881
C 1.52354 1.92047 -3.18345
C 1.76208 .63577 -3.69346
C -2.29673 1.78735 -2.97492
C -.92300 1.46403 -3.36649
C -.62323 .10720 -3.72749
C .70769 -.26045 -3.91734
C -3.26228 .77184 -3.04224
C -2.56854 2.93037 -2.13500
C -1.46690 3.78297 -1.71808
C -3.74994 2.93159 -1.35834
C -1.60306 4.50081 -.51336
C 5.02701 1.12621 .02583
C 2.94310 -.14028 -3.34661
C 3.93144 .38722 -2.48859
C 4.65855 -.54027 -1.71015
C 5.14208 -.16835 -.39486
C 2.58107 -1.50298 -3.30679
C 3.17562 -2.39987 -2.38907
C 4.27762 -1.91565 -1.65391
C .94938 -3.59229 -2.25221
C 2.35311 -3.47912 -1.84325
C .09008 -4.35377 -1.46961
C 1.17467 -1.59927 -3.64419
C -2.87842 -.61399 -3.21046
C -1.55924 -.96976 -3.46392
C -1.09561 -2.26690 -3.03867
C .34272 -2.56331 -3.10942
C -1.94119 -3.05212 -2.19900
C -1.33382 -4.08916 -1.41533
C 3.71872 -3.36420 .22432
C 4.87708 -1.25776 .51901
C 4.51224 -2.37692 -.29505
C 1.75878 -4.57782 .28870
C 2.73687 -4.03167 -.60953
C .47978 -4.84273 -.17530
C 3.16006 -3.20780 1.53778
C 3.30773 -2.02394 2.25554
C 4.25247 -1.02563 1.75882
C 4.15024 .35676 2.21649
C 4.59911 1.40466 1.38311
C 3.14685 .67864 3.15859
C 1.93772 -3.98413 1.57921
C .83118 -3.58740 2.34713
C .93904 -2.36104 3.12946
C 2.19557 -1.62283 3.12530
C 2.18310 -.31648 3.59382
C -1.51043 -2.31400 3.28401
C -.25832 -1.69261 3.52825
C -.46630 -4.08447 1.95401
C -1.62211 -3.46771 2.50918
C -.62865 -4.71191 .69740
C 2.50310 1.93234 3.15325
C 2.83058 2.92619 2.20378
C 3.94268 2.67287 1.37315
C 3.95617 3.15996 .00369
C 2.93746 3.96472 -.43340
C .40969 3.65571 2.26898
C 1.76930 3.81966 1.74640
C 1.93178 4.43753 .49444
C -.63309 4.27426 1.59619
C -.45080 4.82129 .27346
C .79202 4.77990 -.30339
C -.28047 -.26560 3.75579
C .95836 .36425 3.87654
C 1.12769 1.73421 3.58336
C -1.26120 1.91894 3.08779
C .06791 2.50619 3.11081
C -1.43798 .54111 3.43412
C -3.61014 -2.29927 2.31122
C -2.71939 -1.53357 3.13995
C -2.69854 -.13883 3.11038
C -4.53371 -1.64962 1.52289
C -4.68896 -.22456 1.65426
C -3.74509 .54647 2.36721
C -3.54508 1.92462 1.97331
C -2.32532 2.61750 2.36539
C -1.99029 3.78971 1.68303
C -1.78249 -4.36868 -.12766
C -2.92929 -3.70431 .42225
C -2.89260 -3.41891 1.79605
C -4.74147 -.58198 -1.84028
C -3.73981 -1.43369 -2.43431
C -3.23516 -2.57474 -1.78855
C -5.17140 -.84845 -.55591
C -4.67187 -2.01366 .13566
C -3.74605 -2.89672 -.45648
C -5.02830 1.53601 .01588
C -4.66435 1.83190 -1.36767
C -4.45454 .78515 -2.24744
C -5.24869 .23960 .41026
C -2.62288 4.12021 .43268
C -4.27902 2.41601 .87200
C -3.70446 3.40863 .00892
