100 

C .67662 -4.25215 1.78494
C 2.01163 -4.11229 1.38602
C -2.14793 -3.91931 1.98201
C -1.63350 -4.61374 .92269
C -.20676 -4.81485 .82993
C -3.25474 -2.82675 -1.88131
C -2.14838 -4.35844 -.40696
C -3.20610 -3.43571 -.62110
C -3.79384 -2.73215 .51638
C -4.40758 -1.42085 .31241
C -3.29811 -3.05493 1.79706
C -4.50595 -.56506 1.41368
C .13437 -4.77753 -.54412
C 1.40665 -4.37509 -.97205
C 2.40074 -4.26904 .03255
C 3.58616 -3.46971 -.16780
C 3.78137 -2.84384 -1.36866
C -1.05424 -4.43641 -1.30271
C -2.13621 -2.88668 -2.76308
C -.96621 -3.57156 -2.41588
C .32466 -3.01559 -2.81056
C 1.51793 -3.54072 -2.17078
C 2.72333 -2.87313 -2.37441
C 3.90875 .46814 -2.67393
C 4.41693 -1.54084 -1.41610
C 3.91097 -.89750 -2.59093
C -2.08124 -1.65936 -3.50934
C -.86886 -1.01500 -3.74507
C .36736 -1.73885 -3.45877
C 1.60589 -1.00573 -3.52552
C 2.77357 -1.64361 -3.08968
C 2.75842 1.14749 -3.23446
C 1.59953 .46212 -3.59173
C 4.43032 1.25038 -1.59554
C 4.70911 .66031 -.34769
C 4.69262 -.79757 -.25187
C 4.40364 -1.43747 1.03685
C 3.86612 -2.75024 1.05849
C 4.09727 -.62721 2.14226
C 3.79033 2.54717 -1.70011
C 3.64537 3.33825 -.59402
C 3.98866 2.79673 .71234
C 4.46492 1.47207 .85053
C 4.14201 .81658 2.05801
C 2.70171 2.45084 -2.64629
C 1.48729 3.10960 -2.45110
C .29383 2.51404 -3.02064
C -2.07937 1.12339 -3.67885
C .35157 1.19403 -3.57732
C -.86738 .44844 -3.81384
C 3.05164 -.98018 3.03956
C 2.34396 -2.17983 2.90805
C 2.87633 -3.12441 2.00166
C .92812 -2.20150 3.24801
C .14060 -3.33715 2.79633
C -1.24217 -3.27175 2.92710
C 2.39188 .22262 3.46000
C 1.02176 .27747 3.65900
C .27647 -.98139 3.63158
C -1.84990 .36703 3.52079
C -1.16209 -.91668 3.65774
C -1.88337 -2.09231 3.40138
C -3.18169 .35321 3.10154
C -3.82322 -.84930 2.63946
C -3.20523 -2.05803 2.81559
C -1.73747 2.76376 2.79660
C .44800 3.83723 2.52649
C 1.11909 2.71264 3.04517
C .34231 1.57465 3.47618
C -1.08630 1.61243 3.37411
C -.94907 3.85658 2.39351
C 3.14218 1.32956 2.91757
C 3.08674 3.36162 1.65570
C 2.52690 2.56307 2.68173
C -1.26797 4.61822 1.18508
C -2.40914 4.34750 .48774
C -3.37429 3.40908 1.02901
C -3.05378 2.63751 2.17269
C -3.74020 1.43060 2.32199
C 2.25794 4.32017 .94872
C -.04845 4.86718 .47311
C 1.00514 4.59878 1.40929
C -3.38925 2.52817 -2.38088
C -2.14235 2.43498 -3.10406
C -.99122 3.10338 -2.68829
C -3.46585 3.33975 -1.28380
C -2.34871 4.17641 -.93916
C -1.10701 4.06149 -1.59396
C .08303 4.47886 -.87718
C 1.38925 4.06149 -1.34994
C 2.47989 4.16940 -.46449
C -3.28523 -.93232 -3.20438
C -4.01792 1.21913 -2.37206
C -3.29944 .43433 -3.32332
C -4.51412 .87704 1.26732
C -4.06474 2.82228 -.06375
C -4.54953 1.49280 .00465
C -4.51152 .64197 -1.18392
C -4.44363 -.81041 -1.02934
C -3.92987 -1.56039 -2.09240
