100 

C 4.83814 -.98775 .22196
C 4.43908 -2.11006 -.51845
C 4.51757 1.37609 1.79766
C 4.36922 .16225 2.39109
C 4.63039 -1.04245 1.63699
C 3.60133 2.45263 2.14276
C 2.48322 2.21855 3.00150
C 1.41983 3.11390 2.89116
C 3.84828 -2.05380 2.21974
C 3.39900 -3.15510 1.45484
C 3.73508 -3.19384 .08711
C 2.18496 -3.78395 1.85705
C 2.95370 -1.43427 3.21754
C 1.61733 -1.91215 3.41731
C 1.34664 -3.18912 2.90516
C -1.06017 -2.75158 3.00180
C .02320 -3.59063 2.67355
C -2.28917 -3.10528 2.38845
C 2.20300 .88515 3.48574
C 3.24133 -.08833 3.28779
C -1.90955 -.40655 3.31338
C .09683 2.73699 3.26627
C -.23177 1.41133 3.55901
C .85029 .45004 3.67990
C .53615 -.97086 3.63450
C -.81989 -1.39703 3.44204
C 1.33844 -4.38568 .92062
C 1.54498 -4.20215 -.48683
C 2.78482 -3.69918 -.87192
C 2.93600 -2.93758 -2.08366
C 1.82022 -2.66087 -2.89729
C 1.90331 -1.51337 -3.70496
C -.65946 -2.55347 -3.09456
C -1.90996 -2.94134 -2.63455
C -.94125 -4.22982 -.79749
C .37374 -3.99271 -1.35006
C .50916 -3.18666 -2.52878
C -2.06012 -3.80051 -1.52233
C .00282 -4.37103 1.46718
C -2.33127 -3.93458 1.25398
C -1.11784 -4.38998 .65225
C 3.95969 -1.97798 -1.88244
C 2.95971 -.57607 -3.55318
C 3.93180 -.73036 -2.53375
C 2.42480 .72849 -3.88034
C 2.90540 1.83603 -3.24227
C 1.00824 .60291 -4.11676
C -2.21500 2.05747 -2.86085
C -3.51333 1.61361 -2.59563
C -1.28118 1.12812 -3.48758
C .08196 1.54972 -3.65970
C .58948 2.72351 -2.94886
C 1.97760 2.85554 -2.79729
C -.55805 -1.23757 -3.74075
C .70234 -.78480 -4.07631
C -3.06276 -2.05311 -2.69880
C -2.91560 -.71736 -3.14311
C -1.61487 -.25731 -3.59609
C -3.85315 .21361 -2.68902
C 3.97042 1.71156 -2.26424
C 4.42434 .45199 -1.82161
C 4.87179 .32366 -.44048
C 3.81648 2.81023 -1.36538
C 4.26044 2.69561 -.06956
C 4.83213 1.46664 .38043
C 1.33210 4.02280 1.79283
C 3.46614 3.27532 1.00787
C 2.24435 3.95615 .73855
C 2.54237 3.47379 -1.64764
C .30269 4.07060 -.88521
C 1.72913 3.99366 -.64022
C -1.94806 4.24820 .09555
C -.56891 4.39109 .23715
C -.06263 4.29354 1.55815
C -1.70418 3.19635 -2.11325
C -.26417 3.43647 -2.03742
C -2.52581 3.76401 -1.13465
C -3.95926 3.22277 .62543
C -2.76688 3.80571 1.18379
C -2.14041 3.23270 2.31222
C -.80513 3.59634 2.53172
C -4.52706 2.12910 1.24856
C -5.06580 1.11683 -.92026
C -4.32780 2.18688 -1.56261
C -3.82195 3.23460 -.81767
C -5.15085 1.08383 .46250
C -3.93610 -2.37112 -1.64072
C -4.70350 -1.35675 -.99557
C -4.77411 -.10788 -1.64277
C -4.12911 -2.43394 1.16045
C -3.46940 -3.52705 .46010
C -3.34312 -3.47960 -.90270
C -4.93218 -.17125 1.15383
C -4.79494 -1.38442 .46327
C -2.59239 1.94666 2.82051
C -1.61562 .97758 3.34327
C -3.82350 1.49293 2.35050
C -4.11868 .09923 2.31085
C -3.20501 -.84076 2.79912
C -3.37516 -2.16318 2.31468
