100 

C 3.66735 1.59892 2.50989
C 3.90728 .21661 2.57070
C 4.76424 -.32077 1.57928
C 4.73942 -1.72756 1.25492
C 3.87897 -2.56388 1.93931
C 2.43782 2.17298 3.03212
C 1.40260 1.35693 3.54608
C 1.62446 -.07349 3.63217
C 2.89617 -.64038 3.18104
C 2.94241 -2.00261 2.89272
C -.76297 -.35180 4.00223
C .49209 -.92984 3.74869
C .80424 3.75178 2.07732
C 2.14886 3.34108 2.32101
C -1.86072 4.00083 1.14005
C -1.64236 3.22372 2.26841
C -.25571 3.05741 2.73583
C .07582 1.89305 3.52864
C -.97070 1.03078 3.91347
C 4.17705 -2.85751 -.85208
C 3.39083 -3.82244 -.10677
C 4.86274 -1.84980 -.18637
C 3.20387 -3.64865 1.25011
C -.10258 -4.44544 -1.21517
C 2.25065 -4.17900 -.92255
C .98411 -4.47119 -.34564
C .49420 -2.26531 3.18383
C 1.73397 -2.79131 2.83200
C 1.86249 -3.76395 1.81052
C -.57743 -3.72531 1.48881
C .74325 -4.14577 1.05481
C -.70239 -2.82172 2.58648
C 4.17497 -.20412 -1.89814
C 3.38856 -1.23838 -2.54661
C 4.89881 -.53849 -.74166
C 3.46322 -2.54144 -2.04409
C 2.31955 -3.42932 -2.12129
C -.01547 -3.76529 -2.46956
C 1.14356 -3.06165 -2.81037
C 1.02141 -1.73268 -3.37595
C 2.19303 -.87098 -3.31809
C 2.02797 .46326 -3.62891
C 2.89616 1.49805 -3.09779
C 3.84817 1.20510 -2.11600
C 4.08717 2.18731 -1.07027
C 2.14399 2.70926 -3.08595
C 2.38860 3.65580 -2.11380
C 3.37246 3.39963 -1.11118
C -1.07436 4.39329 -.99390
C 1.26153 4.34558 -1.50738
C -.06913 4.08648 -1.92130
C .77694 2.40467 -3.48075
C -1.59608 2.31085 -2.91255
C -.32721 3.02718 -2.90935
C -3.81453 2.06524 -1.87554
C -2.67822 2.83985 -2.09257
C -2.39140 3.81732 -1.10087
C -.43192 .26304 -3.72070
C .72957 1.02365 -3.83894
C -3.75612 -2.01115 -2.33711
C -2.75990 -1.30061 -3.04367
C -2.84715 .14744 -3.08201
C -1.65739 .94784 -3.35046
C -3.94277 .75938 -2.45902
C -.28589 -1.17111 -3.57730
C -1.31077 -3.25833 -2.79650
C -1.47679 -1.95668 -3.27652
C 4.56235 1.73131 .23264
C 4.97532 .40131 .37011
C 2.90253 4.04822 .10305
C 3.19885 3.51058 1.32524
C 4.08830 2.37567 1.40766
C 1.56757 4.56722 -.14094
C .54996 4.47712 .84536
C -.77157 4.54722 .38454
C -5.18057 .81567 -.47381
C -4.50467 2.07826 -.61447
C -3.90794 2.71651 .49064
C -2.91541 3.67737 .19774
C -5.23000 .20836 .76720
C -4.84009 -1.99112 -.25941
C -4.76304 -1.34273 -1.56443
C -4.88265 .02586 -1.65612
C -5.02571 -1.23064 .87350
C -2.22014 -3.81278 -1.82710
C -3.88586 -3.06736 -.24107
C -3.41318 -3.19952 -1.59391
C -2.99764 -.01835 3.53717
C -1.99217 -1.03315 3.66423
C -1.99062 -2.17503 2.86010
C -4.08877 -.23417 2.73289
C -4.21071 -1.48822 2.03336
C -3.14506 -2.41400 2.00637
C -2.99423 -3.25778 .83782
C -1.71794 -3.91089 .58099
C -1.45162 -4.32701 -.72905
C -3.85055 2.03515 1.77275
C -2.69319 2.26111 2.64167
C -2.34997 1.26011 3.54461
C -4.57120 .83104 1.89688
