100 

C 2.24190 -4.04816 -.73885
C 1.03193 -4.32842 -1.44509
C -2.88161 -3.24262 -2.09619
C -1.71517 -4.03451 -1.97569
C -1.32485 -4.56336 -.72017
C .06064 -4.74748 -.48645
C -3.60344 -2.80786 -.93757
C -3.27893 -3.42966 .27170
C -2.14488 -4.28949 .39769
C -3.96104 -1.43492 1.58508
C -3.45196 -2.74391 1.52630
C -3.65239 -.71150 2.75485
C -4.15893 -1.44388 -.90378
C -4.12173 -.70618 -2.09963
C -4.27629 -.72110 .34088
C .61442 -4.55418 .82018
C 1.97836 -4.15494 .65623
C 2.59179 -3.28056 1.56527
C 3.75093 -2.62154 1.10236
C -1.56842 -4.07553 1.69370
C -.15965 -4.06462 1.88591
C 4.95983 .70132 .70161
C 4.96126 -.68298 .70321
C .43718 -3.10713 2.82723
C 1.80605 -2.69949 2.64661
C 4.19800 -1.38147 1.68991
C 3.39790 -.71576 2.62614
C -.44995 -2.29924 3.63796
C 4.19510 1.40057 1.68662
C .07951 -1.16587 4.27810
C 1.39585 -.72039 4.00800
C 2.26616 -1.44533 3.20524
C 3.39626 .73553 2.62421
C -2.41114 -3.16783 2.40007
C -2.65609 -1.16243 3.67574
C -1.89256 -2.31362 3.39757
C 4.62036 -.71771 -1.72217
C 4.61894 .73015 -1.72370
C 4.84963 -1.40942 -.54643
C 4.84659 1.42490 -.54952
C 4.08745 2.62361 -.28805
C 3.17882 3.14280 -1.24057
C 2.23434 4.05936 -.74893
C 1.39422 .74005 4.00588
C 2.26296 1.46451 3.20125
C 1.80037 2.71659 2.63955
C 2.58517 3.29685 1.55720
C 3.74572 2.63879 1.09650
C 1.97044 4.16842 .64587
C -.71148 -3.50773 -2.88534
C .65342 -3.53201 -2.56667
C 4.09274 -2.60886 -.28211
C 3.56123 -1.15962 -2.61556
C 2.82912 -2.32389 -2.39783
C 3.18467 -3.13150 -1.23316
C 1.49504 -2.42015 -2.97552
C 2.93360 .00320 -3.17039
C .89171 1.26823 -3.59038
C 1.60207 .00162 -3.57669
C .89396 -1.26628 -3.58688
C -1.28064 2.41189 -3.59506
C -.52794 1.25435 -3.87285
C -1.23847 -.00177 -4.00990
C -.52559 -1.25608 -3.86937
C -1.27602 -2.41444 -3.58851
C 2.82488 2.33193 -2.40321
C 3.55903 1.16835 -2.61793
C 1.02390 4.33587 -1.45617
C .64680 3.53592 -2.57571
C 1.49068 2.42465 -2.98156
C -.71824 3.50798 -2.89444
C -2.65933 -2.34102 -3.19938
C -3.30910 -1.14196 -3.24206
C -2.64275 -.00298 -3.79443
C -2.88811 3.24027 -2.10468
C -2.66388 2.33656 -3.20567
C -3.31131 1.13609 -3.24505
C -3.28551 3.43187 .26275
C -3.60906 2.80673 -.94494
C .05167 4.75505 -.49867
C -2.15303 4.29417 .38652
C -1.33362 4.56743 -.73202
C -1.72322 4.03487 -1.98622
C .07710 1.18389 4.27470
C -.45460 2.31477 3.63168
C .43100 3.12250 2.81890
C -1.57613 4.08424 1.68291
C -.16741 4.07680 1.87519
C .60583 4.56575 .80840
C -2.65835 1.17390 3.67255
C -2.06076 .00710 4.27137
C -.72184 .00869 4.56126
C -2.41715 3.17661 2.39155
C -1.89710 2.32587 3.39131
C -4.12325 .70147 -2.10151
C -4.16194 1.44176 -.90746
C -4.27779 .72147 .33898
C -3.45721 2.74858 1.51897
C -3.96386 1.43874 1.58129
C -3.65370 .71874 2.75286
