100 

C 3.82277 2.71604 -.86177
C 4.48115 2.51729 .36392
C 5.18905 1.30402 .65017
C 3.82007 1.62075 -1.82613
C 4.61928 .51516 -1.57520
C 5.35785 .35911 -.34895
C 1.83179 2.53612 -2.91581
C 2.68102 1.43481 -2.72415
C .79778 -.05428 -3.40873
C 2.19646 .13012 -3.05861
C 3.01490 -1.01720 -2.69351
C 4.24325 -.79450 -2.05348
C 1.00786 -2.50258 -2.91743
C 2.42245 -2.32850 -2.60591
C .39000 -3.66982 -2.45191
C .17328 -1.36601 -3.28555
C -1.25435 -1.47255 -3.20865
C .53681 2.37709 -3.40234
C -2.23866 2.16960 -3.16625
C -1.48853 .97282 -3.47159
C -.04095 1.08474 -3.56593
C 4.18380 -2.96584 -.97565
C 5.40156 -1.05277 -.02683
C 4.82176 -1.75828 -1.15697
C 2.27408 -4.22812 -1.03473
C 3.06555 -3.29932 -1.80468
C .97639 -4.43660 -1.37714
C 3.90041 -3.43533 .37848
C 4.22528 -2.62860 1.44850
C 5.08079 -1.47068 1.26420
C 4.65901 -.48529 2.23833
C 4.79876 .86042 1.98127
C 2.62605 -4.09732 .35684
C 2.73210 3.73951 1.55601
C 3.81868 2.91045 1.59871
C 3.82016 1.78304 2.49208
C 3.44556 -.95827 2.86741
C 2.39570 -.09811 3.20422
C 2.61212 1.33356 3.06465
C -.05821 .28510 3.44912
C .14151 1.69432 3.25210
C 1.46932 2.21439 3.01961
C 1.59023 3.45253 2.37078
C -2.25706 2.00633 3.07494
C -.97642 2.51277 2.88755
C .79625 -1.96898 2.81851
C 1.05296 -.63656 3.25874
C -2.97689 -1.95430 2.76499
C -1.64671 -1.60245 3.09183
C -1.38306 -.23338 3.49988
C -2.46357 .68216 3.50035
C -.01231 -4.59812 -.34973
C .24020 -4.07849 .93041
C 1.61089 -3.78490 1.28760
C 1.87962 -2.76759 2.28555
C 3.18696 -2.28057 2.39331
C -2.19499 -3.61250 1.14414
C -.85728 -3.45961 1.65871
C -.57706 -2.41501 2.60331
C -3.24426 -2.91668 1.76516
C 1.86469 3.69721 -2.01227
C 2.75124 3.71009 -.90975
C 2.27212 4.27370 .28990
C -.82301 3.59745 1.93243
C .45704 4.05962 1.72199
C .88071 4.56173 .43749
C -1.83243 3.79838 .89263
C -.00289 4.52613 -.64453
C .56419 4.21627 -1.92231
C -3.37629 2.42644 2.24575
C -3.13191 3.16173 1.05748
C -1.40837 4.22528 -.39278
C -2.21634 3.87268 -1.53287
C -1.56954 3.38362 -2.74560
C -.23336 3.50456 -2.90714
C -5.38706 -.41407 -.58447
C -4.98581 .82416 -1.13357
C -4.08520 .87936 -2.22676
C -3.41767 2.11303 -2.44268
C -4.91649 -1.59607 -1.16106
C -3.38387 3.14269 -1.38942
C -3.92021 2.84356 -.09587
C -4.86104 1.78950 -.02840
C -4.35472 1.40494 2.31289
C -5.45054 -.28126 .86394
C -5.12619 1.10461 1.18048
C -4.53217 -2.70928 -.31219
C -4.46588 -2.53193 1.05650
C -4.95748 -1.30337 1.65874
C -4.06406 -.99010 2.76419
C -3.80244 .31357 3.10353
C -1.27059 -4.34913 -.98607
C -3.45298 -3.39999 -.97916
C -2.39173 -3.99859 -.24450
C -3.47232 -.31870 -2.72326
C -2.09849 -.27863 -3.25133
C -3.99162 -1.53547 -2.23954
C -3.15285 -2.70027 -2.16905
C -1.84410 -2.69804 -2.70682
C -1.01395 -3.72731 -2.25741
