100 

C 4.43927 -2.16859 -.13216
C 4.70087 -1.08148 -.99076
C 4.95450 .16596 -.36630
C 4.68462 1.42736 -1.04247
C 4.09157 1.42391 -2.27456
C 3.65562 -3.31249 -.56522
C 3.08836 -3.31616 -1.81277
C 3.31113 -2.19176 -2.70701
C 4.11043 -1.08816 -2.33110
C 3.80088 .15899 -2.93622
C .75786 -4.27377 1.54870
C 1.56972 -4.29167 .40628
C 2.88223 -3.78117 .56370
C -.85363 4.48788 -.44283
C .53806 4.37654 -.54144
C 4.25197 2.38836 -.05160
C 2.99803 2.34284 -2.55099
C 2.51296 3.26050 -1.60182
C 3.23413 3.33617 -.32613
C 1.13738 3.68432 -1.69811
C 2.11738 1.68617 -3.43429
C .76043 1.98736 -3.47769
C .27210 3.08475 -2.67977
C -2.02880 2.38962 -3.24382
C -1.18071 3.27930 -2.59605
C -1.72941 4.00625 -1.48658
C 2.11752 -2.00576 -3.45064
C 1.69856 -.72996 -3.85486
C 2.60600 .33388 -3.66805
C .27453 -.44408 -3.96515
C -.14735 .93024 -3.93535
C -1.51336 1.19934 -3.88386
C 2.58416 3.88279 .78907
C 1.24886 4.43869 .67711
C -2.79850 3.73788 .54480
C -1.52043 4.32776 .80198
C -.80686 4.03538 1.97166
C .59077 4.27470 1.91927
C -4.32247 1.89213 .80700
C -3.32289 2.76736 1.38654
C -3.34357 2.07136 -2.73231
C -3.78037 2.63785 -1.50060
C -2.94922 3.64511 -.90879
C -4.54648 1.84209 -.63676
C 1.51072 3.58972 2.80741
C 2.73304 3.32199 2.08267
C 3.44750 2.11110 2.25688
C 4.30427 1.74452 1.20975
C 1.02864 2.65504 3.67672
C -1.33069 3.00915 2.86531
C -.40077 2.38545 3.74038
C -2.53717 2.30928 2.53619
C 1.73464 1.39617 3.85293
C 2.88440 1.06308 3.11637
C 3.14382 -.33079 2.84291
C 4.13500 -.66719 1.80501
C 4.69080 .36039 1.00925
C 4.14759 -1.95213 1.24326
C .76785 .42471 4.17958
C .95284 -.92252 3.88283
C 2.18994 -1.32663 3.25561
C 1.10156 -3.47603 2.67879
C 2.24807 -2.66481 2.66547
C 3.19896 -2.95369 1.67069
C -2.64057 -1.87687 3.26684
C -1.57321 -1.13550 3.77907
C -.25246 -1.75707 3.82052
C -.12134 -3.04930 3.31799
C -4.56312 .63797 1.32428
C -3.78764 .13312 2.44079
C -2.74560 .96244 3.03437
C -1.69903 .31090 3.76626
C -.55514 1.04952 4.11623
C -3.72103 -1.24439 2.57342
C -3.28538 -3.25061 1.47919
C -2.44913 -3.15899 2.66445
C -1.20200 -3.71819 2.65986
C -3.26868 -3.26382 -.93523
C -2.71988 -3.74371 .24275
C -4.96851 -.24051 .22887
C -4.27789 -2.24164 -.95057
C -4.66820 -1.61313 .26276
C -4.14420 -2.14772 1.48562
C -3.62892 .72379 -3.05152
C -4.10608 -1.48395 -2.13783
C -4.39812 -.09520 -2.17364
C -4.89771 .50407 -.98091
C 1.14523 -2.98537 -3.00730
C -.22601 -2.73309 -3.06281
C -.68109 -1.48528 -3.68409
C -2.95040 -2.02249 -2.84899
C -2.06582 -1.15826 -3.59114
C -2.47128 .17642 -3.75715
C -.67593 -4.34286 1.45055
C -1.32811 -4.22828 .22785
C -.50348 -4.09280 -.99009
C .92499 -4.21664 -.89567
C 1.71453 -3.76298 -1.97931
C -2.45280 -3.09515 -2.12425
C -1.06366 -3.43482 -2.13700
