100 

C -3.84302 .82946 -2.58164
C -3.91750 -.56733 -2.46435
C -4.67960 -1.07153 -1.38083
C -4.47111 -2.41052 -.88092
C -3.54132 -3.22088 -1.49567
C -2.69783 1.47104 -3.20512
C -1.58456 .72038 -3.65304
C -1.64518 -.72450 -3.58065
C -2.83157 -1.37348 -3.01269
C -2.71634 -2.68793 -2.56412
C .75094 -.77456 -4.01723
C -.42557 -1.46276 -3.66707
C -1.24522 3.33225 -2.49187
C -2.53724 2.74368 -2.65074
C 1.37991 3.98613 -1.64879
C 1.23929 3.05739 -2.67092
C -.12153 2.68460 -3.08580
C -.32673 1.40323 -3.73320
C .80286 .63060 -4.05376
C -3.68925 -3.16424 1.32568
C -2.79263 -4.09646 .67107
C -4.53464 -2.35781 .57008
C -2.71001 -4.11151 -.70644
C -1.40481 -4.16594 -1.33781
C -1.56943 -4.14569 1.44937
C -.29290 -4.33207 .84524
C -.20956 -4.31456 -.60572
C -.26648 -2.73027 -2.98385
C -1.43024 -3.33589 -2.48255
C 2.05527 -1.27629 -3.66921
C 2.20652 -2.36537 -2.81441
C 1.00348 -3.11692 -2.43544
C 1.01482 -3.91808 -1.23923
C 2.19258 -3.94346 -.44029
C -4.05664 -.42591 2.03834
C -3.12584 -1.25044 2.78443
C -4.73908 -1.00188 .95282
C -2.99450 -2.59881 2.43131
C -1.71128 -3.27151 2.53939
C -.58432 -2.64927 3.12902
C -.72734 -1.31061 3.64929
C -2.01155 -.62867 3.49969
C -2.03967 .74396 3.65505
C 1.70774 -1.17088 3.77338
C .45086 -.53935 3.89278
C 2.11950 -4.00675 .95348
C .85002 -3.99370 1.61397
C .70133 -3.16956 2.79202
C 1.83960 -2.46635 3.26573
C -3.02151 1.57377 2.98880
C -3.92312 1.02987 2.06758
C -4.28846 1.82705 .90696
C -2.42858 2.86040 2.80293
C -2.78131 3.62190 1.71241
C -3.72944 3.11299 .77261
C .57242 4.57758 .43369
C -1.74262 4.34797 .99547
C -.38738 4.30602 1.41613
C -1.03810 2.79840 3.23224
C 1.33660 2.90831 2.65077
C -.00628 3.45349 2.55385
C 3.55275 2.68638 1.55508
C 2.35190 3.38825 1.70385
C 1.94500 4.16053 .58830
C .42075 .91410 3.82520
C -.83040 1.51455 3.80179
C 2.90546 -.41385 3.43850
C 2.83491 .96968 3.17760
C 1.55809 1.67083 3.33641
C 3.82168 1.49674 2.32748
C -4.71281 1.14727 -.31250
C -4.95636 -.23125 -.26633
C -3.34644 3.64291 -.52394
C -3.58804 2.91743 -1.65837
C -4.33766 1.68637 -1.57257
C -2.07914 4.34122 -.37952
C -1.06344 4.23384 -1.36780
C .24411 4.50781 -.94789
C 4.93127 1.31504 .30249
C 4.19508 2.55479 .28733
C 3.54034 3.00103 -.88122
C 2.46890 3.89553 -.69557
C 5.03726 .57647 -.84760
C 3.77968 -1.26051 2.71697
C 4.58292 -.75245 1.66438
C 4.67983 .65211 1.57172
C 4.04871 -2.79714 .37072
C 3.27559 -3.31230 1.48922
C 3.14018 -2.56281 2.62627
C 4.93564 -.87838 -.78378
C 4.71950 -1.54832 .44020
C 2.94349 -.13355 -3.62249
C 4.04534 -.14506 -2.79924
C 4.30744 -1.31708 -1.98201
C 3.40719 -2.40786 -1.97375
C 3.38540 -3.19786 -.80927
C 3.54936 2.16881 -2.07224
C 2.38432 2.17674 -2.94836
C 2.15046 1.04944 -3.73627
C 4.38213 1.02859 -2.05869
