100 

C 2.53917 -3.80170 .95563
C 3.51125 -3.51300 -.01687
C 4.42869 -2.42623 .13969
C 2.47578 -2.95519 2.14125
C 3.46137 -1.99444 2.32250
C 4.45535 -1.72233 1.31976
C -1.16409 -3.33841 2.81168
C .17410 -3.65219 2.55103
C 1.20630 -2.74440 2.82973
C -1.53960 -2.05695 3.27787
C -.50900 -1.09798 3.56833
C .86909 -1.46500 3.39317
C 1.89652 -.43093 3.44535
C 3.18364 -.76250 3.01943
C -2.19721 .68156 3.52082
C -.86627 .32794 3.67151
C -3.20710 -.26509 3.11919
C -2.90118 -1.62383 2.98178
C -3.69800 -2.36108 2.07270
C 3.74807 1.55326 2.53984
C 4.73093 -.29839 1.31972
C 4.08926 .22949 2.48794
C 1.52751 .98282 3.50034
C 2.48536 1.93678 3.12882
C .14231 1.37421 3.50453
C 4.02672 2.40774 1.42385
C 4.40801 1.86323 .18243
C 4.77868 .44933 .12879
C 4.65835 -.28796 -1.13625
C 4.51805 -1.69585 -1.11698
C 4.11718 .37680 -2.25640
C 3.09555 3.51399 1.52757
C 2.70021 4.18813 .40439
C 3.07865 3.67473 -.89671
C 3.90659 2.52976 -1.02465
C 3.73701 1.77214 -2.19576
C 1.35208 4.69812 .32014
C -.93983 4.59268 1.00385
C .41017 4.45816 1.35227
C -2.58718 1.96337 3.00409
C -1.63162 2.94839 2.72870
C -.23262 2.67289 3.02468
C .77031 3.54864 2.44182
C 2.10737 3.18142 2.54989
C -1.97786 3.90101 1.74452
C 3.21132 -.28036 -3.12302
C 2.90501 -1.63831 -2.97846
C 3.70160 -2.37157 -2.06585
C 3.17825 -3.56598 -1.42868
C 1.97754 -4.07384 -1.83030
C 2.20155 .66465 -3.52943
C .87041 .31076 -3.67815
C .51296 -1.11446 -3.56703
C 1.54329 -2.07233 -3.27185
C 1.16769 -3.35159 -2.79952
C -1.89249 -.44636 -3.44787
C -.86508 -1.48025 -3.39004
C -1.20233 -2.75690 -2.82018
C -.17049 -3.66386 -2.53733
C -3.17953 -.77582 -3.02026
C 1.98246 3.89259 -1.76922
C 1.63614 2.93541 -2.74880
C 2.59165 1.94883 -3.01904
C -1.52350 .96703 -3.51037
C .23697 2.65895 -3.04360
C -.13814 1.35806 -3.51666
C .22832 -4.53019 1.38011
C 1.34142 -4.51573 .52620
C 1.09100 -4.67974 -.86264
C -.22499 -4.53651 -1.36241
C -1.33808 -4.51784 -.50861
C -1.08775 -4.67546 .88100
C -3.17479 -3.55867 1.44152
C -1.97418 -4.06490 1.84569
C -3.45707 -2.00427 -2.31696
C -2.47170 -2.96434 -2.13083
C -2.53551 -3.80572 -.94156
C -3.50772 -3.51240 .02939
C -3.74405 1.54228 -2.55268
C -4.08524 .21874 -2.49397
C -4.72701 -.30357 -1.32319
C -4.45133 -1.72756 -1.31595
C -4.42493 -2.42614 -.13255
C -.76596 3.53771 -2.46509
C -2.10318 3.17021 -2.57125
C -2.48135 1.92288 -3.14379
C -2.69582 4.18683 -.43035
C -1.34752 4.69690 -.34858
C -.40563 4.45222 -1.37965
C .94445 4.58811 -1.03188
C -3.09125 3.50764 -1.55017
C -3.73256 1.78315 2.18173
C -3.90223 2.53528 1.00699
C -3.07418 3.67953 .87328
C -4.51418 -1.68975 1.12046
C -4.77470 .44968 -.13597
C -4.65422 -.28182 1.13261
C -4.11286 .38816 2.24938
C -4.02244 2.40198 -1.44074
C -4.40377 1.86324 -.19668
