100 

C 2.51454 3.84314 .54979
C 3.17511 3.31900 -.56622
C 4.29792 2.45565 -.30452
C 4.70999 1.44349 -1.26299
C 4.05587 1.33351 -2.45307
C 1.14590 4.22880 .47460
C .40924 4.10168 -.70001
C 1.05239 3.51868 -1.86448
C 2.42685 3.15658 -1.79537
C 2.92646 2.20139 -2.75154
C -1.16874 3.12293 -2.83337
C .20496 2.90257 -2.88360
C -2.99044 3.51332 .77494
C -1.65522 3.92371 .72018
C -1.04199 4.10645 -.57762
C -1.79431 3.79996 -1.71850
C 3.33756 -2.31047 -2.59395
C 4.12984 -1.18414 -2.33303
C 3.77874 .01951 -3.02543
C 2.57140 .12601 -3.72638
C .25194 -.71516 -3.93101
C 1.66231 -.96515 -3.82813
C 2.11066 -2.20676 -3.33715
C -2.04566 -1.50262 -3.55245
C -.65123 -1.76853 -3.58629
C .66432 1.73950 -3.59893
C 2.05827 1.47387 -3.55775
C -2.09740 2.17953 -3.36315
C -1.64819 .93400 -3.84194
C -.23759 .68311 -3.93760
C -2.55790 -.15558 -3.73388
C 4.80369 -1.07129 -1.02946
C 5.10318 .24460 -.52659
C 3.14522 -3.34657 -1.59650
C 3.74560 -3.21776 -.35741
C 4.60858 -2.08392 -.08280
C 1.80216 -3.81204 -1.67922
C 2.99066 -3.50469 .81580
C 1.65548 -3.91530 .76001
C 1.04619 -4.10880 -.53828
C -.19354 -2.92524 -2.85926
C 1.18031 -3.14587 -2.80207
C -2.91674 -2.22241 -2.74306
C -2.41937 -3.16868 -1.77707
C -1.04423 -3.53185 -1.83787
C -.40443 -4.10463 -.66608
C -1.14500 -4.22120 .50668
C 4.47059 -1.77167 1.31792
C 4.63822 -.45303 1.78710
C 5.01731 .54994 .83352
C 3.87300 -.05507 2.91664
C 3.45766 -2.62290 1.86733
C -.53951 -3.93316 1.79497
C .80666 -3.62994 1.91381
C 1.21296 -2.64408 2.90173
C 2.58290 -2.15868 2.85979
C 2.88121 -.90213 3.44412
C 3.42054 1.33181 3.08452
C 3.71146 2.32048 2.08248
C 4.53066 1.93692 .97226
C 2.76746 3.33096 1.87411
C 2.18146 1.31268 3.72867
C -1.83497 .11272 3.95532
C -.53064 .53659 3.99636
C -.22181 1.90607 3.55421
C 1.16474 2.28166 3.43785
C 1.51865 3.33982 2.59305
C -1.52497 -3.31488 2.61600
C -1.17300 -2.25047 3.45329
C .21379 -1.87459 3.57193
C .52138 -.50132 4.00303
C 1.82560 -.07736 3.96329
C -2.19035 -1.27915 3.73118
C -2.88861 .93278 3.42496
C -2.58837 2.18399 2.83092
C -1.21900 2.66984 2.87370
C -.81016 3.64801 1.87922
C .53577 3.95128 1.76297
C -3.46052 2.64010 1.83217
C -3.87889 .08152 2.90123
C -5.01885 -.54042 .82025
C -4.64110 .47011 1.76641
C -4.47213 1.78487 1.28701
C -2.77102 -3.31167 1.89207
C -4.53246 -1.92594 .97226
C -3.71552 -2.29999 2.08795
C -3.42701 -1.30361 3.08237
C -4.04710 -1.35120 -2.45588
C -4.70542 -1.45089 -1.26760
C -4.29567 -2.45488 -.29962
C -3.17105 -3.32013 -.54968
C -2.51332 -3.83476 .57274
C -3.32696 2.29155 -2.62519
C -4.12076 1.16799 -2.35737
C -3.76755 -.04198 -3.03801
C -4.60617 2.08585 -.11653
C -3.74207 3.21751 -.39789
C -3.13784 3.33619 -1.63595
C -5.10072 -.24594 -.54263
C -4.79892 1.06636 -1.05524
