42
0 1
C       -2.549371   -1.888225   -0.642804 
C       -3.099006   -0.958098    0.200899 
C       -3.171237    0.365557   -0.527573 
C       -2.126113   -1.156824   -1.909227 
C       -2.353070    0.272190   -1.712775 
C       -0.893316   -1.630032   -2.265783 
C       -1.422995   -2.725036   -0.230851 
C       -0.464523   -2.705562   -1.296187 
C       -0.928209   -2.573453    1.089295 
C       -2.510195   -0.682198    1.522738 
C       -1.403313   -1.425420    1.920567 
C       -2.954834    1.375386    0.411018 
C       -2.436922    0.740067    1.691965 
C       -2.096488    2.423694    0.071061 
C       -1.281147    1.198518   -1.943183 
C       -1.306663    2.383697   -1.121414 
C        0.233431   -0.741920   -2.475312 
C        0.044985    0.667022   -2.378070 
C        0.928212   -2.573452   -1.089296 
C        1.403315   -1.425417   -1.920568 
C        0.464526   -2.705562    1.296186 
C        1.422997   -2.725034    0.230851 
C       -0.233429   -0.741921    2.475311 
C        0.893318   -1.630033    2.265783 
C       -1.248798    1.407098    2.077668 
C       -1.148864    2.614467    1.244121 
C       -0.044986    0.667020    2.378069 
C       -0.046864    3.039055   -0.763036 
C        0.046860    3.039055    0.763037 
C        1.248796    1.407101   -2.077668 
C        1.148860    2.614469   -1.244120 
C        2.510196   -0.682195   -1.522739 
C        2.436921    0.740069   -1.691964 
C        2.549374   -1.888223    0.642804 
C        2.126115   -1.156822    1.909227 
C        3.099008   -0.958094   -0.200899 
C        1.281145    1.198518    1.943182 
C        1.306660    2.383698    1.121415 
C        2.096485    2.423697   -0.071059 
C        2.954832    1.375389   -0.411017 
C        2.353070    0.272192    1.712775 
C        3.171237    0.365561    0.527573 
