42
0 1
C        3.682872    0.018316    0.167155 
C        3.134814    1.352972   -0.199226 
C        2.574939    1.247475   -1.478664 
C        3.265104   -0.945240   -0.915330 
C        2.578280   -0.220594   -1.871970 
C        2.543293   -2.013634   -0.247884 
C        3.067293   -0.389321    1.364247 
C        2.470827   -1.700835    1.157854 
C        2.286744    1.806594    0.896157 
C        2.188943    0.690653    1.869422 
C        1.131938    2.517675    0.587384 
C        1.272650    1.759260   -1.763690 
C        0.677670    2.597251   -0.812147 
C        1.209743   -0.539415   -2.284904 
C        0.448431    0.678348   -2.355019 
C        1.220890   -2.416902   -0.692639 
C        0.582988   -1.736551   -1.796461 
C        1.133633   -1.986339    1.626329 
C        0.436717   -2.656751    0.506043 
C        0.952513    0.363967    2.398906 
C        0.424094   -1.020045    2.322531 
C       -0.075151    2.376834    1.420485 
C       -0.197353    1.261656    2.251665 
C       -0.751634    2.691353   -0.826778 
C       -1.221289    2.730476    0.608171 
C       -0.986657    0.688351   -2.252061 
C       -1.584581    1.829215   -1.557032 
C       -0.836287   -1.761899   -1.843392 
C       -1.630040   -0.570160   -2.173864 
C       -0.953893   -2.654046    0.451997 
C       -1.561842   -2.492977   -0.828014 
C       -1.041577   -0.947265    2.227285 
C       -1.435483    0.465987    2.260121 
C       -1.743555   -1.863558    1.442349 
C       -2.413989    2.050744    0.686691 
C       -2.781908    1.603941   -0.721809 
C       -2.572221    0.888938    1.553499 
C       -2.924866   -0.712295   -1.468813 
C       -2.864993   -1.857342   -0.652612 
C       -2.966788   -1.432903    0.783140 
C       -3.400548    0.391927   -0.647433 
C       -3.339722   -0.093862    0.808312 
