42
0 1
C        3.771577    0.602615   -0.000006 
C        3.718717   -0.764964    0.000019 
C        2.934479   -1.223822    1.205729 
C        3.013209    1.107727    1.205568 
C        2.376989   -0.053315    1.863329 
C        2.202121    2.129194    0.765459 
C        3.013163    1.107660   -1.205586 
C        2.202097    2.129218   -0.765487 
C        2.934540   -1.223916   -1.205656 
C        2.376993   -0.053254   -1.863344 
C        2.066093   -2.218629    0.764713 
C        2.066174   -2.218584   -0.764667 
C        0.715057   -2.245116    1.185983 
C        0.988225   -0.011022    2.201362 
C        0.193556   -1.229308    2.023353 
C        0.831265    2.240428    1.177220 
C        0.254114    1.262478    2.034069 
C        0.831331    2.240430   -1.177296 
C        0.071550    2.668218    0.000044 
C        0.988307   -0.010942   -2.201389 
C        0.254188    1.262420   -2.033993 
C        0.715001   -2.245057   -1.186016 
C       -0.097652   -2.647998   -0.000005 
C        0.193567   -1.229403   -2.023346 
C       -1.445870   -2.569890   -0.000009 
C       -1.260310   -1.176576    2.095274 
C       -2.100435   -1.987306    1.177427 
C       -1.181522    1.281090    2.087871 
C       -1.915665    0.030671    2.296079 
C       -1.314331    2.592969    0.000034 
C       -1.943762    2.051386    1.175363 
C       -1.181551    1.281123   -2.087784 
C       -1.943724    2.051375   -1.175407 
C       -1.260330   -1.176538   -2.095315 
C       -2.100434   -1.987270   -1.177448 
C       -1.915664    0.030669   -2.296114 
C       -3.212031   -1.215486    0.732442 
C       -3.165240    0.064564    1.433373 
C       -3.148231    1.252538    0.730666 
C       -3.148241    1.252532   -0.730657 
C       -3.212048   -1.215477   -0.732468 
C       -3.165270    0.064569   -1.433383 
