42
0 1
C       -2.634024   -2.237754    0.314330 
C       -2.900475   -1.464059   -0.843724 
C       -3.438566   -0.202288   -0.393144 
C       -2.548618   -1.304893    1.491945 
C       -3.120318   -0.109639    1.117038 
C       -1.168315   -1.341673    1.980751 
C       -1.343928   -2.865696    0.176438 
C       -0.531133   -2.494117    1.312638 
C       -1.683154   -1.459561   -1.695786 
C       -0.841199   -2.534886   -1.142007 
C       -1.064193   -0.263308   -2.116119 
C       -2.987758    0.941922   -0.970030 
C       -1.820952    0.974774   -1.893620 
C       -2.418060    1.136935    1.334200 
C       -2.658875    1.921844    0.137364 
C       -0.421146   -0.155158    2.185439 
C       -1.104860    1.136758    1.919982 
C        1.064192   -0.263323    2.116119 
C        0.841196   -2.534894    1.141998 
C        1.683153   -1.459574    1.695782 
C        0.531130   -2.494110   -1.312647 
C        1.343924   -2.865697   -0.176450 
C        0.421146   -0.155140   -2.185437 
C        1.168314   -1.341662   -1.980756 
C        1.104862    1.136769   -1.919973 
C       -1.151750    2.165974   -1.651320 
C       -1.705919    2.786598   -0.364821 
C        0.294767    2.279779   -1.593179 
C       -0.294759    2.279766    1.593192 
C       -0.602094    3.088479    0.447703 
C        0.602107    3.088481   -0.447692 
C        1.820951    0.974759    1.893622 
C        1.151755    2.165958    1.651327 
C        1.705925    2.786590    0.364830 
C        2.418058    1.136939   -1.334193 
C        2.987756    0.941913    0.970031 
C        2.658876    1.921840   -0.137357 
C        2.900472   -1.464070    0.843717 
C        2.634021   -2.237758   -0.314340 
C        2.548615   -1.304886   -1.491950 
C        3.438563   -0.202296    0.393139 
C        3.120315   -0.109637   -1.117037 
