42
0 1
C        3.480941   -0.792831   -0.408133 
C        3.565895    0.347385    0.360161 
C        2.896969    1.465431   -0.365770 
C        2.728897   -0.467121   -1.658163 
C        2.353840    0.941528   -1.614449 
C        1.721558   -1.436321   -1.794090 
C        2.663972   -1.820413    0.319710 
C        1.644473   -2.271850   -0.540848 
C        2.783918    0.142297    1.629207 
C        2.302125   -1.231544    1.604998 
C        2.024808    2.087640    0.549920 
C        1.868764    1.205628    1.760605 
C        0.885195    2.721444    0.042791 
C        1.042735    1.343204   -2.024211 
C        0.419560    2.404081   -1.283531 
C        0.510784   -1.049548   -2.405214 
C        0.157451    0.330157   -2.546898 
C       -0.664278   -1.833322   -2.097439 
C        0.356006   -2.661226   -0.014463 
C       -0.783365   -2.596372   -0.933292 
C        1.013224   -1.467110    2.067447 
C        0.119840   -2.384436    1.350467 
C        0.542129    0.973991    2.293764 
C        0.197585   -0.358358    2.575301 
C       -0.278875    2.860252    0.922836 
C       -0.526789    1.894434    1.901153 
C       -1.046829    2.541422   -1.253635 
C       -1.451615    2.942305    0.027663 
C       -1.328684    0.428135   -2.421898 
C       -1.845420   -0.917007   -2.230277 
C       -1.922995    1.449955   -1.709581 
C       -2.147230   -2.349283   -0.411651 
C       -2.751783   -1.222471   -1.235801 
C       -1.230950   -2.059025    1.821717 
C       -1.191399   -0.811250    2.487482 
C       -2.354963   -2.057405    0.909302 
C       -1.944756    1.400713    1.711849 
C       -2.460671    1.980397    0.521577 
C       -2.863200    1.144094   -0.593541 
C       -3.217885   -0.186194   -0.316749 
C       -2.263177    0.055543    1.980312 
C       -3.005807   -0.686946    1.021370 
