42
0 1
C        3.322545   -1.389884   -0.124955 
C        3.444987   -0.296664   -0.954832 
C        3.223190    0.943655   -0.162423 
C        2.884623   -0.915624    1.241696 
C        2.888367    0.537826    1.201843 
C        1.707910   -1.600119    1.586410 
C        2.220022   -2.246129   -0.637203 
C        1.407204   -2.565668    0.470244 
C        2.340903   -0.344702   -1.978974 
C        1.598940   -1.572438   -1.774191 
C        2.307272    1.740730   -0.887027 
C        1.662232    0.883418   -1.951048 
C        1.493495    2.632012   -0.161522 
C        1.827841    1.209798    1.836416 
C        1.341146    2.413958    1.238712 
C        0.574101   -0.911351    2.190301 
C        0.652385    0.476290    2.339027 
C       -0.748767   -1.491306    2.030667 
C        0.084355   -2.892757    0.204700 
C       -0.920553   -2.652636    1.246645 
C        0.179544   -1.564627   -1.895111 
C       -0.503450   -2.528330   -1.067060 
C        0.236282    0.929124   -2.163818 
C       -0.500488   -0.304614   -2.228424 
C        0.197774    2.962403   -0.717952 
C       -0.405634    2.162139   -1.696848 
C       -0.108849    2.553540    1.579533 
C       -0.555066    1.343477    2.155908 
C       -0.772534    3.103662    0.444064 
C       -1.973477   -0.639302    1.878293 
C       -1.842088    0.793827    1.799541 
C       -2.203765   -2.578697    0.570053 
C       -1.940469   -2.436581   -0.829746 
C       -2.878062   -1.342320    1.030418 
C       -1.954476   -0.273157   -2.005467 
C       -2.638090   -1.298922   -1.343513 
C       -3.384702   -0.684252   -0.141313 
C       -1.839360    2.123814   -1.383474 
C       -1.990386    2.574987    0.063294 
C       -2.602396    1.477276    0.783753 
C       -2.561405    0.988841   -1.549397 
C       -3.271103    0.679306   -0.237223 
