42
0 1
C       -3.726294    0.468338   -0.000026 
C       -3.532661   -0.893214   -0.000046 
C       -2.721060   -1.287611   -1.194919 
C       -3.016608    1.030112   -1.207598 
C       -2.342408   -0.087728   -1.897857 
C       -2.224277    2.066931   -0.764411 
C       -3.016581    1.030077    1.207582 
C       -2.224252    2.066924    0.764433 
C       -2.721117   -1.287660    1.194826 
C       -2.342465   -0.087735    1.897827 
C       -1.730643   -2.206116   -0.750491 
C       -1.730689   -2.206076    0.750413 
C       -0.505608   -2.206722   -1.409929 
C       -0.991795    0.058002   -2.352406 
C       -0.205751   -1.139580   -2.337920 
C       -0.855747    2.231577   -1.184221 
C       -0.264125    1.326167   -2.106495 
C       -0.855772    2.231542    1.184320 
C       -0.100834    2.645983    0.000003 
C       -0.991854    0.057993    2.352376 
C       -0.264202    1.326091    2.106446 
C       -0.505609   -2.206674    1.409919 
C       -0.205831   -1.139625    2.337889 
C        0.753138   -2.585809   -0.712002 
C        0.753127   -2.585811    0.712040 
C        1.243535   -1.077192   -2.433220 
C        1.834599   -1.988942   -1.380121 
C        1.178833    1.351835   -2.149945 
C        1.918106    0.110773   -2.414989 
C        1.287880    2.585354    0.000029 
C        1.927731    2.058027   -1.177896 
C        1.178834    1.351816    2.149916 
C        1.927687    2.057996    1.178005 
C        1.243451   -1.077211    2.433204 
C        1.834540   -1.988957    1.380139 
C        1.918018    0.110719    2.415008 
C        2.897652   -1.271202   -0.707095 
C        3.049085    0.005748   -1.408343 
C        3.091663    1.208694   -0.718858 
C        3.091631    1.208681    0.718893 
C        2.897620   -1.271224    0.707136 
C        3.049053    0.005708    1.408380 
