54

 C     1.0934678963     0.0356831998     3.8091935404
C     2.2586669069     -0.2482442874     3.1813163843
C     2.2056778906     -1.6675219155     2.7121445661
C     0.2089386597     -1.1645469992     3.7094251312
C     0.8405711301     -2.1129671715     2.7986699676
C     -1.04887987     -0.690428925     3.4864635541
C     0.3237377872     1.2129487102     3.4352603474
C     -1.0258870332     0.7865578578     3.4417496032
C     0.7767976251     2.0644032473     2.3553456788
C     2.7673916688     0.5767080243     2.0786787837
C     1.9950738325     1.6939736901     1.5843078441
C     2.8658735681     -1.7104663165     1.5221034978
C     3.321220274     -0.334691499     1.1619173693
C     2.2934928107     -2.2912299678     0.3607840011
C     0.1526717401     -2.5395294783     1.6176170054
C     0.9277923316     -2.715819729     0.3596590097
C     -1.8395267176     -1.1510735355     2.3830065824
C     -1.2753160361     -2.1355254337     1.4914305808
C     -1.9659008752     1.1869348453     2.4681191244
C     -2.542250087     -0.0153080234     1.8430972373
C     -0.2682765673     2.7389053122     1.6527425558
C     -1.6530847969     2.2765519586     1.6716959278
C     -0.0432845621     3.2103980453     0.3390438786
C     2.0645185411     1.9659294064     0.1381849806
C     1.0474701832     2.8099699337     -0.4413175794
C     3.2251763323     -0.1961873388     -0.2250554034
C     2.7828309004     -1.4943857641     -0.7517374775
C     2.6970448731     1.0135401371     -0.7798535716
C     2.1724593573     -1.5571647946     -1.9755962328
C     0.247215653     -2.7403199707     -0.9507425289
C     0.9099179143     -2.2773408247     -2.1266196638
C     -1.9028173837     -2.2037184041     0.2406630567
C     -1.1989092656     -2.6657867082     -0.9713963342
C     -3.0106012456     0.0076442857     0.5072858387
C     -2.9025127372     -1.2496755496     -0.1703788808
C     -2.2029266267     2.3657136209     0.3220959302
C     -1.2705893827     3.0918205906     -0.4441934051
C     -2.9020283541     1.2581994994     -0.2814975818
C     0.5401391933     2.6190599223     -1.8119519911
C     -0.9333586522     2.7515595186     -1.7705704905
C     2.2355093777     0.905790173     -2.1427519129
C     2.1089512265     -0.3619826275     -2.7456232061
C     1.1144324604     1.7017321376     -2.652546914
C     0.1810076302     -1.6152628622     -3.2104731299
C     0.8899000896     -0.4133184784     -3.5361474429
C     0.2775974352     0.8600357773     -3.5282199332
C     -1.8967167646     -2.1982407371     -2.0840869661
C     -2.9582453746     -1.3004700647     -1.593841581
C     -1.2279922603     -1.5560645296     -3.1861472135
C     -2.7876324408     1.1469411272     -1.7097645411
C     -1.7498425061     1.8487409236     -2.4465709219
C     -1.1397724464     0.9098389444     -3.4141322619
C     -2.9078756965     -0.1421693104     -2.3346988358
C     -1.8713176364     -0.2901396224     -3.3860859561


