54

 C     1.3488123425     -0.0800634444     3.5706621326
C     2.509979219     -0.3505321416     2.8825016095
C     2.4012592119     -1.7082593911     2.311286484
C     0.4884553705     -1.2659734121     3.4955275854
C     1.1000594038     -2.2238134784     2.6085433991
C     -0.8196155256     -0.8367555467     3.269651499
C     0.549616598     1.0814075068     3.2441468956
C     -0.8201963965     0.6369274005     3.0744809213
C     1.0749359934     2.0330072558     2.3630287364
C     3.0002988252     0.5492996353     1.8684910153
C     2.3463159484     1.7786499779     1.6835898881
C     2.860270554     -1.638670531     0.9892094658
C     3.3226875047     -0.2622023564     0.7079895088
C     2.1758724503     -2.351297006     -0.0274147689
C     0.3028373464     -2.8270470258     1.5485858237
C     0.9047486885     -2.9517931411     0.2447715738
C     -1.6704419512     -1.6366746762     2.4805021697
C     -1.1074630537     -2.6192758337     1.5795181286
C     -2.7178763167     -0.9873634995     1.7917010203
C     -1.68875112     1.2500657479     2.13520551
C     -2.723634021     0.4043122428     1.5611787829
C     0.1962794975     2.7175977767     1.4357863391
C     -1.1870337115     2.370176659     1.3260210886
C     2.2335543295     2.3372093541     0.3525169895
C     0.9706973123     3.0391987757     0.2529752932
C     3.1702043491     0.2604106919     -0.5728368583
C     2.6843056526     1.6144094217     -0.7615869948
C     2.1528305988     -1.8448919724     -1.3817030475
C     2.6379873406     -0.5617445531     -1.6520106084
C     0.1120881469     -2.9055966616     -0.99033139
C     0.9180755062     -2.278174667     -1.9998451847
C     -1.9109540909     -2.5986516842     0.3454009889
C     -2.9485181195     -1.6687643406     0.5336497659
C     -1.3011884291     -2.7004985416     -0.9563327616
C     -3.2193074396     0.6203482513     0.2019795973
C     -3.3180834459     -0.706107676     -0.4534699923
C     -1.8220001761     2.6409761168     0.0581832053
C     -2.8094484173     1.7131112022     -0.5195925402
C     0.3434810697     3.195021373     -0.9840051594
C     -1.0712751842     3.1321105969     -1.021798943
C     1.9508381836     1.6631779112     -2.0212230433
C     1.9392600867     0.3125101586     -2.5851082587
C     0.8449611768     2.4910894979     -2.168926187
C     0.3246981238     -1.4991859509     -3.0103794415
C     0.8365677418     -0.1494567764     -3.2919751818
C     -1.9004430081     -1.935346528     -2.0316912003
C     -2.8883937218     -0.8814424962     -1.7525599014
C     -1.0818879285     -1.4331615772     -3.0669352091
C     -2.5553760768     1.5887409497     -1.9678707474
C     -1.4826891504     2.456238806     -2.2584072466
C     -0.311111641     2.0332894526     -2.948689865
C     -0.3086549458     0.7383997946     -3.522105338
C     -2.5560550713     0.3012322552     -2.5656908408
C     -1.4815796498     -0.056173893     -3.4045947179


