54

 C     1.3979589953     0.0199228714     4.0903118841
C     0.6698455037     -1.2197806575     4.0273909398
C     1.4852203322     -2.2019010815     3.4498994185
C     2.6216107831     -0.1305033143     3.2927263324
C     2.7458008485     -1.5091991187     3.0094666584
C     2.5324543759     0.7929097296     2.2004475842
C     0.607220387     1.0233301271     3.5231386977
C     1.3517831624     1.6292965172     2.4457347832
C     -0.6510998238     -0.9286817801     3.4508178895
C     -0.7209806737     0.5093551151     3.2026554914
C     -1.1750692735     -1.762642926     2.4765228689
C     1.012412384     -2.9880334352     2.3493814966
C     -0.342929321     -2.831625799     1.9015139303
C     3.0172464428     -1.9251162778     1.7117671853
C     2.0289065232     -2.9372120365     1.3299784155
C     2.7634665287     0.3856995026     0.824018254
C     3.0596663963     -0.9947456391     0.6195256421
C     2.1213711077     1.14218857     -0.2715099689
C     0.6709097737     2.2404136822     1.4155649826
C     1.2821009539     2.273410716     0.0785671908
C     -1.4048657365     1.0406629979     2.1093389316
C     -0.7937346189     2.187672452     1.44693535
C     -1.9967014215     -1.2168043884     1.4099896846
C     -2.1998104293     0.1680963949     1.2286411036
C     -0.6699243171     -2.9171921268     0.5221624153
C     -1.7905548714     -2.0120431024     0.2311438775
C     1.7214413233     -2.8094911125     -0.0277669
C     2.4435701362     -1.6384326626     -0.5308173264
C     0.3660984086     -2.9888277453     -0.4692573837
C     1.8886820069     0.5515190079     -1.5732159213
C     1.9711455321     -0.9164694404     -1.6228397501
C     1.0903601305     1.258436424     -2.6000804487
C     0.5892832663     2.9692313312     -0.9109480413
C     0.5544990719     2.5351495069     -2.2886380805
C     -1.4779761807     2.7571011987     0.3935816492
C     -0.7501093693     3.4587325204     -0.6130996568
C     -2.7080835363     0.6554610143     -0.0626550099
C     -2.5945150968     2.0621224427     -0.2945519165
C     -2.1386145037     -1.5615106114     -1.0643379233
C     -2.7872677849     -0.2465698398     -1.2185316828
C     0.0619128935     -2.4931765873     -1.738778823
C     0.9718177116     -1.5990258576     -2.4165213527
C     -1.2794696271     -2.046978522     -2.1170058936
C     0.3303913958     0.4607736476     -3.5873082809
C     0.2729982836     -0.9316181205     -3.427855102
C     -1.1579329485     -1.3195248971     -3.3113562317
C     -2.8217205304     0.3438497822     -2.5408570242
C     -1.0206071429     0.8839447235     -3.9859353196
C     -1.9181826252     -0.1919695215     -3.5379166947
C     -0.7394752952     3.0080827356     -2.8637474843
C     -1.5067575284     3.5060939718     -1.794638142
C     -2.6836160127     2.6154349236     -1.6055429123
C     -1.5510567377     2.0764099753     -3.5650433819
C     -2.7491192525     1.7637747095     -2.7004659941


