54

 C     1.2852145598     -0.1838653538     3.5953899201
C     2.4105006754     -0.3556086669     2.8290489654
C     2.3413725276     -1.692541923     2.2002307108
C     0.4302574469     -1.3897289053     3.4423330927
C     1.0968338855     -2.3121703223     2.5595111732
C     -0.8668738943     -0.9549662933     3.1895394457
C     0.4682812528     0.991941309     3.4551801563
C     -0.888801875     0.5329332604     3.3464017783
C     0.9183413069     2.0448098351     2.6209309723
C     2.7678886364     0.6014486148     1.8152791411
C     2.0564862363     1.8187825037     1.7554332654
C     2.7261630401     -1.5713295045     0.8666328283
C     2.9910317118     -0.1336693549     0.5999988506
C     2.0990909684     -2.3825484013     -0.1346714662
C     0.3555234455     -2.938819227     1.5438091287
C     0.9303976811     -3.1189436521     0.2296183073
C     -1.6594520872     -1.5898869049     2.1330844617
C     -1.041537981     -2.6166903085     1.3603114371
C     -2.646878238     -0.7872090899     1.4804601885
C     -1.8090885597     1.282199187     2.6193119236
C     -2.7693380924     0.5985581879     1.8181076389
C     -0.0462888678     2.8141149994     1.8506404551
C     -1.400958694     2.484374479     1.8859898602
C     1.8001649408     2.4438861827     0.4684249824
C     0.5600564938     3.1716105966     0.5739837257
C     2.7396546681     0.4388656634     -0.6767794211
C     2.1811617264     1.8012345567     -0.756652747
C     2.1951929331     -1.8975274357     -1.4838286962
C     2.4906060676     -0.4794665338     -1.7457478619
C     1.2934289047     -2.345637792     -2.4580180789
C     -0.1666246758     -3.220803439     -0.7217097958
C     -1.3568020178     -2.7793317076     -0.0533721519
C     0.0411722379     -2.9202484297     -2.0783708409
C     -2.8900628122     -0.8856502487     0.0643855953
C     -2.2550858629     -1.8711278544     -0.7179533885
C     -3.0540409813     1.3622989113     0.6463912144
C     -2.2017838952     2.5270158075     0.6512998823
C     -3.0907533993     0.4814093898     -0.4549848901
C     -0.2415079143     3.3441999103     -0.561546576
C     -1.6468303727     2.9531229304     -0.5406354155
C     1.4350442795     2.1557765529     -1.9329306072
C     0.284700578     2.9595236838     -1.8158206276
C     1.7793385822     -0.081618223     -2.939103529
C     1.0428044707     -1.2370501457     -3.3992385949
C     1.1677953707     1.1730105768     -2.9937691641
C     -0.97423262     -2.1892909156     -2.8029271259
C     -1.9983872982     -1.5495704585     -2.1158580332
C     -0.3087673167     -1.1618477738     -3.6335549692
C     -2.5570132763     0.8909038485     -1.7211624784
C     -1.9072867278     2.1937139397     -1.7821450537
C     -0.7773925774     2.3402147683     -2.6086069271
C     -0.2372874075     1.283088561     -3.381408012
C     -2.0913197234     -0.1336416485     -2.5948116039
C     -1.0041074698     0.0917522477     -3.496121045


