54

 C     1.4754740618     -0.1745722293     3.8234607804
C     0.6747950877     -1.3105055978     3.6405013325
C     1.1239770279     -1.9362284613     2.4016516998
C     2.5000302616     -0.1393949323     2.8181701658
C     2.3235893999     -1.2348180724     1.932014031
C     2.6078693279     1.1808287315     2.2760725754
C     0.6564940233     0.9797718297     3.5460820356
C     1.3000502766     1.8044780939     2.5554653997
C     -0.6947307402     -0.8585535773     3.6228497535
C     -0.6914487081     0.5932380491     3.3973446215
C     -1.6218010228     -1.6444283638     2.9877697653
C     0.1998484915     -2.4988329636     1.4669094216
C     -1.1627697327     -2.6146749728     1.9439188062
C     0.4655549791     -2.4019677796     0.0223463002
C     2.6021188475     -1.0841672007     0.5401599567
C     1.7129723216     -1.768879576     -0.4386813365
C     3.1491329849     1.2906835724     1.021272448
C     3.2788357395     0.1171663981     0.1556903502
C     2.6693099151     2.3460272875     0.1883931025
C     0.5518250507     2.3563010632     1.4730185179
C     1.3292871103     2.7579769508     0.3284277968
C     -1.4996768897     1.1307451052     2.3176117406
C     -0.8633365376     1.9680534027     1.2781023257
C     -2.7745713329     -1.0139191224     2.4696444692
C     -2.6480201997     0.3634513384     1.9826606027
C     -2.2153711334     -2.7458346554     1.0324587689
C     -3.3144341966     -1.8306463233     1.4410154547
C     -0.6618799446     -2.4823626568     -0.9086496258
C     -1.9810017498     -2.6019836522     -0.3610759066
C     -0.5586897274     -1.9257627994     -2.274270288
C     1.8287690932     -1.40101709     -1.7958167122
C     0.7334175203     -1.5313453025     -2.7451480812
C     3.1937317718     0.5960092145     -1.2044290578
C     2.8725272239     1.9879759764     -1.1931340492
C     2.6233553335     -0.2274198284     -2.1983267146
C     0.7509338476     2.8287441902     -1.0136009573
C     1.7919657569     2.4652284901     -1.9760938668
C     -1.417232878     1.9994458684     -0.0711481754
C     -0.5989286498     2.4780393009     -1.2222466905
C     -3.1629334993     0.3686515295     0.6457877107
C     -3.5599114826     -1.0285522573     0.3426706506
C     -3.0103307483     -1.6534041673     -0.8367272648
C     -2.5811478624     1.1462810003     -0.3666859802
C     -1.6859159297     -1.1983211079     -2.8152522165
C     -2.752297576     -0.856636646     -1.8944393082
C     -2.7367265714     0.6154183253     -1.7252474904
C     -0.9262101347     2.0504459807     -2.5865032932
C     -1.4785866126     -0.0294373744     -3.5909116521
C     -1.9919252378     1.0973463608     -2.7701838701
C     0.8795088509     -0.4838164278     -3.7165800561
C     1.9659496576     0.3843884329     -3.2772186335
C     1.4538424994     1.7370977639     -3.1352234791
C     -0.2186324728     0.3306665726     -4.0236708415
C     0.0933451091     1.7030223492     -3.5102050062


