54

 C     1.4557285664     -0.1455594856     3.886817126
C     0.6673408855     -1.2632512343     3.714553924
C     1.3084654468     -2.1206304075     2.7116991988
C     2.5454006982     -0.1843973076     2.9457754345
C     2.413696078     -1.3671715151     2.1341786506
C     2.5994092169     1.0715944573     2.2865314449
C     0.6434008807     1.0262858446     3.5064715524
C     1.3640069099     1.8316117084     2.5987286423
C     -0.7257997511     -0.8268629221     3.457304337
C     -0.6967259898     0.63074064     3.240723088
C     -1.5238105726     -1.6253248824     2.683233951
C     0.4898888691     -2.8570563913     1.8812978115
C     -0.956275628     -2.8188115917     2.0739413464
C     0.7628044578     -2.9572570298     0.4457887003
C     2.5948305502     -1.311815169     0.6959210973
C     1.7362395929     -2.1397924004     -0.1859218816
C     3.081641336     1.108255337     0.9844373374
C     3.0954932598     -0.0917628231     0.1637357584
C     2.6332168345     2.1683675932     0.1561097622
C     0.6602317499     2.5377438543     1.5747774668
C     1.4339331582     2.8756911719     0.3975207466
C     -1.4216369508     1.2304004454     2.1718512964
C     -0.775254006     2.3182465366     1.4276316049
C     -2.4189720626     -1.0152202208     1.6965639531
C     -2.4323376154     0.3937885156     1.4828765371
C     -1.5542316521     -2.9496815305     0.8226977995
C     -0.5255329317     -3.1879421867     -0.181001856
C     -2.533111554     -1.9156165512     0.5819944661
C     -0.75951605     -2.7918182492     -1.4583521309
C     1.5031745564     -1.7470553538     -1.6024777319
C     0.330191408     -2.24460361     -2.2484681128
C     2.8146268122     0.325314686     -1.2077662354
C     2.6608440277     1.7340378438     -1.2202677446
C     2.036472595     -0.4725767448     -2.1094524996
C     0.8027452597     3.0846149384     -0.8991724721
C     1.6037050236     2.3698092131     -1.9209312235
C     -1.3711422352     2.7064554433     0.1814033049
C     -0.5669181423     3.0817810131     -0.9997616341
C     -2.9354356185     0.817599033     0.2200251055
C     -2.5151463333     2.061372421     -0.3095614637
C     -2.781810537     -1.4564296407     -0.7491075639
C     -2.0191955818     -2.085006539     -1.8294713086
C     -3.1378861656     -0.0967527453     -0.9059150617
C     -0.2988917455     -1.5415470193     -3.3122001877
C     -1.7488257873     -1.3911580023     -2.992593306
C     1.3114461788     0.2589047763     -3.1221641225
C     0.9869642144     1.6758294039     -2.9395770427
C     0.1619598997     -0.3179978653     -3.7338626541
C     -1.2232183697     2.5362151151     -2.1980500853
C     -2.4308517686     1.9451229868     -1.7610392432
C     -2.821805531     0.6319842739     -2.1370734005
C     -2.1097939355     -0.0056789139     -3.188782506
C     -0.455573733     1.8538623968     -3.1840929061
C     -0.9581582577     0.6531486642     -3.7275270598


