54

 C     1.1306956553     -0.0873969295     3.9161942655
C     2.2929638126     -0.259198024     3.1941083292
C     2.2546851748     -1.5634073709     2.50346701
C     0.3101834806     -1.2987890007     3.6827992787
C     0.9903999364     -2.170716873     2.7213169263
C     -0.9732822396     -0.8872641402     3.4340839759
C     0.2833704477     1.0811162557     3.6761356933
C     -1.0430601171     0.5882991231     3.4373232368
C     0.7467383757     2.1024534674     2.8524627491
C     2.775924072     0.7329233183     2.2685040139
C     2.0853322928     1.9707953528     2.2327971817
C     2.7654803542     -1.3644181634     1.2042815845
C     3.0987393777     0.0629809122     1.0215646634
C     2.1841005941     -2.074458631     0.1565345461
C     0.2681783823     -2.7270379898     1.6144446051
C     0.993446839     -2.8441531624     0.375277447
C     -1.7247294456     -1.3887376183     2.3227814718
C     -1.1713490251     -2.417380048     1.4907903354
C     -1.7945443334     0.963206767     2.3172167916
C     -2.3634097798     -0.2558073289     1.7178335403
C     -0.1436218378     2.6725804231     1.8282106338
C     -1.3748864025     2.0340762228     1.4485558603
C     2.0372997952     2.6264224028     0.9974337838
C     0.6844388313     3.1882696038     0.7940556533
C     2.8970581762     0.6707044456     -0.2480851811
C     2.45301132     2.0423071125     -0.2114571951
C     2.141050012     -1.5263757362     -1.1928230258
C     2.4802743243     -0.1638341055     -1.4110345353
C     0.33253869     -2.9447286893     -0.9028808873
C     1.0524904453     -2.1494855319     -1.8950920604
C     -1.7984690386     -2.5359355065     0.2316576094
C     -1.0580718105     -2.984044769     -0.959380498
C     -2.8247867082     -0.2767740722     0.3959772039
C     -2.7803166267     -1.5800519792     -0.2170062212
C     -1.8001882817     2.0146303699     0.0389505523
C     -2.707853212     0.940921263     -0.4370565682
C     0.3452034211     3.1213512739     -0.5360571173
C     1.53380655     2.5249526337     -1.2291737224
C     -0.9678634874     2.6906323439     -0.9441152529
C     1.835326307     0.4617275514     -2.5259412945
C     1.385377747     1.8583160767     -2.4059216041
C     0.3797490251     -1.5107724833     -2.9883625835
C     0.8671698418     -0.2009304599     -3.3471657186
C     -1.7069906862     -2.482259389     -2.1142244803
C     -2.8596342623     -1.671723387     -1.6360113805
C     -1.047868144     -1.7859360863     -3.1371728458
C     -2.887731223     0.7760518251     -1.8395568802
C     -2.9922639311     -0.564219351     -2.4161050694
C     -1.9606394733     -0.6778732069     -3.4861821348
C     -1.081023534     2.3560923868     -2.3350204685
C     0.1436350363     1.9972782755     -3.1044267278
C     -0.0901555539     0.8240305613     -3.8181699687
C     -2.0987132839     1.5245587781     -2.7730917841
C     -1.4972158803     0.5670312871     -3.7632437567


