54

 C     1.5675293004     -0.2502488374     4.2901609764
C     0.7304507145     -1.4169823396     4.2876393514
C     1.2019731783     -2.3225238206     3.3072708263
C     2.5784058369     -0.4040287295     3.3114169711
C     2.3145089221     -1.6662483681     2.6344116341
C     2.5393518898     0.7840844776     2.4802074408
C     0.7600089008     0.8894428014     3.9233119059
C     1.3733319304     1.6039900306     2.855485025
C     -0.6071173762     -1.0160810836     3.9191938855
C     -0.6225504924     0.4384730531     3.7851457153
C     0.0656706273     -2.6637730076     2.4727566446
C     -1.0853339419     -1.8229395028     2.8480791831
C     0.259712605     -2.909946515     1.1331042765
C     2.4659008589     -1.7717572342     1.196213456
C     1.5341335626     -2.5823273467     0.472116378
C     2.8374554603     0.6829542366     1.1408684497
C     2.93673047     -0.6273647528     0.4763409916
C     2.2823100433     1.6014322446     0.1807613393
C     0.5751762387     2.219799235     1.8254642606
C     1.1231867586     2.3854530592     0.4636002285
C     -1.3639194705     0.9725866047     2.7600540971
C     -0.8283778814     2.0256209798     1.899810514
C     -1.9222748647     -1.2611896602     1.8179418728
C     -2.1881254601     0.130382193     1.8957148289
C     -0.7862365942     -2.675558452     0.1715188984
C     -1.9008496263     -1.8294987422     0.4544919025
C     1.2547847658     -2.3718045528     -0.9088943629
C     -0.1611374068     -2.643321833     -1.1243158575
C     2.6506383215     -0.4262407834     -0.9046898575
C     2.4546814829     1.0026495298     -1.1164368786
C     1.8330971997     -1.3115368547     -1.6786439433
C     1.7687248703     1.4771388474     -2.1905138583
C     0.2745550393     2.7414389857     -0.6604706755
C     0.7775723356     2.5244374987     -1.9933833696
C     -1.6167104791     2.0505675988     0.7117707264
C     -2.4618757925     0.872562363     0.7092253141
C     -1.1830412579     2.6212126717     -0.5110481096
C     -2.5076393886     -1.1364293681     -0.6688506843
C     -2.861010997     0.2824306425     -0.5161021661
C     -0.8281722949     -2.1424590417     -2.1983358009
C     -2.1382006304     -1.5396144592     -2.0021658092
C     1.143830834     -0.814394003     -2.8936253858
C     1.2948351296     0.5795624472     -3.2528496259
C     -0.1275443843     -1.4029733679     -3.2571338392
C     -0.0827403376     2.4485665547     -3.1057821784
C     0.2930083658     1.2866242865     -3.9596657243
C     -2.0121363403     2.3457709126     -1.6342188705
C     -2.8633965753     1.1592706965     -1.6367827938
C     -1.495365706     2.4792611     -2.9825753945
C     -2.3396614896     -0.6971667278     -3.1125802722
C     -1.1168377427     -0.6784421922     -3.9639121949
C     -0.9204252931     0.6697298833     -4.3345783547
C     -2.821538123     0.6308200568     -2.9865697134
C     -2.0493456754     1.4785885856     -3.829951403


