54

 C     1.3105817579     -0.0416097965     3.6443847259
C     2.4407094172     -0.2438942096     2.8613850155
C     2.403884561     -1.5914590096     2.2912158988
C     0.4759933682     -1.2245230549     3.4808725471
C     1.1524569063     -2.1839605505     2.6280678224
C     -0.801482787     -0.7580546038     3.1230943682
C     0.5184093284     1.14316672     3.4429876019
C     -0.8175108647     0.7147704617     3.0955036957
C     1.0905882002     2.2141365085     2.7197302813
C     2.8147656678     0.6810281708     1.817634828
C     2.2158899317     1.9322007618     1.7925776794
C     2.8001780286     -1.4812912279     0.9362846245
C     2.983399559     -0.0579270879     0.5818489242
C     2.2615579492     -2.3580395955     0.0099626146
C     0.4267346063     -2.9135700144     1.6242078007
C     1.1327678304     -3.2145545148     0.3959623342
C     -1.5487901692     -1.4623118363     2.164801725
C     -0.975644477     -2.6366887322     1.4860361984
C     -2.4034351138     -0.7753669716     1.2644673792
C     -1.616893663     1.4278165625     2.1431405917
C     -2.4187847934     0.6678451706     1.1609715463
C     0.2247024674     3.0743812413     2.0421582275
C     -1.129763092     2.7322822222     1.7674577352
C     1.9473309632     2.5628091684     0.5182431112
C     0.8498761997     3.4599141615     0.7539433943
C     2.5565634644     0.451981754     -0.6702705663
C     2.0186855539     1.832504087     -0.7145602019
C     2.104830088     -1.9416397086     -1.3579129191
C     2.1782683753     -0.5327862696     -1.71212504
C     0.4255789547     -3.4638251196     -0.7902913162
C     1.0814807698     -2.7605403777     -1.9018236173
C     -1.6521120503     -2.7702887639     0.2296613854
C     -2.5601618917     -1.6333612307     0.1006387331
C     -0.963245793     -3.2238167528     -0.9140150775
C     -2.8503608345     -1.0975895429     -1.1320625638
C     -2.7027111179     1.2268062434     -0.1482483298
C     -2.958708777     0.349229436     -1.2607687314
C     -1.4075627917     3.2347898831     0.4406196038
C     -0.1253851257     3.6624044967     -0.1774120672
C     -2.1122697285     2.516410149     -0.4992388524
C     1.0634436132     2.1947904457     -1.7765267617
C     -0.0303913531     3.0823368873     -1.4674370042
C     -1.3807460945     2.6534594739     -1.7915756159
C     1.3658781227     -0.120833514     -2.7905527358
C     0.8098423929     1.2436025546     -2.828596279
C     0.1277231397     -2.2708146276     -2.8009870562
C     -1.2002770921     -2.5746275126     -2.2197762307
C     -2.2095132037     -1.6361853321     -2.348867726
C     0.3785723102     -1.0111395481     -3.3906881669
C     -2.5067478519     0.6757361344     -2.5695206014
C     -1.5882535946     1.7665693543     -2.8121626697
C     -0.4421484829     1.1976710604     -3.4734647453
C     -2.0143064405     -0.5114650253     -3.2294172813
C     -0.7434863435     -0.2064785678     -3.7395582265


