54

 C     1.2165546777     0.1735331903     3.7920597714
C     2.338923051     -0.0377532812     2.9504506025
C     2.3420559298     -1.3909588332     2.4820711272
C     0.3709796547     -1.0029602415     3.6503777626
C     1.0236854654     -1.9012691575     2.7487621609
C     -0.9368621461     -0.5514715643     3.3202350572
C     0.4139445291     1.3043012107     3.5524377654
C     -0.9437703847     0.9020161651     3.4550582103
C     0.7013636569     2.2557838528     2.480060683
C     2.6466521801     0.8359375846     1.8510274396
C     1.8590575772     2.0346158208     1.6466955792
C     2.8433272026     -1.375833092     1.1449428927
C     3.0356454573     0.0097720042     0.717967801
C     2.3510215605     -2.2711203188     0.2445502718
C     0.2973342298     -2.5803216493     1.6928356443
C     1.1099810511     -3.013178894     0.5872269324
C     -1.6943045187     -1.1581763305     2.2580245309
C     -1.1024783486     -2.2436000421     1.4348260851
C     -2.6654309025     -0.3012217331     1.6453142714
C     -1.5613316474     1.7235399676     2.4688339973
C     -0.5417003228     2.6042151008     1.85783795
C     -2.5252557928     1.17365443     1.6728054716
C     -0.6328117464     3.0053111243     0.4876219466
C     1.7889115993     2.5121029791     0.3260553949
C     0.6233311534     3.1770857612     -0.1832642251
C     2.8092594346     0.3964516038     -0.6295142027
C     2.3927074532     1.7666597847     -0.8010367633
C     2.2981285026     -1.9536488338     -1.1784328898
C     2.4251787655     -0.6005861468     -1.647758905
C     0.534770037     -3.3827604273     -0.6212036746
C     1.3426984868     -2.8271308532     -1.7366840255
C     -1.66057025     -2.52146965     0.097080563
C     -0.833412595     -3.1426092717     -0.9027635419
C     -3.1703990454     -0.6026447615     0.3777200407
C     -2.6841600716     -1.6529923813     -0.4267926266
C     -2.7401527357     1.676027382     0.3167275875
C     -1.8098851908     2.574383534     -0.3138631392
C     -3.3037805941     0.6167524194     -0.4130499129
C     -1.6617128034     2.4071409202     -1.7362680234
C     0.6961438788     3.0909333303     -1.6160597407
C     1.7700416973     2.1713931914     -1.9735745887
C     -0.4050055925     2.7151464063     -2.3485058685
C     1.580008311     -0.1905292983     -2.7895596808
C     1.2815698942     1.2085851578     -2.9433164182
C     -0.0275668329     1.6348344412     -3.2889381658
C     0.4796015621     -2.422831057     -2.7407351475
C     -0.8704053702     -2.6745974299     -2.2731430313
C     0.5503355679     -1.0933659608     -3.2671985902
C     -2.633529705     -1.1245326686     -1.7918847397
C     -2.9567174717     0.3104452222     -1.7490443581
C     -2.164956854     1.2283455454     -2.4337307992
C     -1.1024522845     0.7305005786     -3.3415273165
C     -1.6705114888     -1.5877013645     -2.6887904661
C     -0.8240478819     -0.6342034766     -3.4229666994


