54

 C     1.499848656     -0.0301272019     4.0388175054
C     0.717501775     -1.2520407999     3.8938557587
C     1.5325960335     -2.2450871933     3.311716738
C     2.6578868355     -0.1838936237     3.1389131634
C     2.6697664886     -1.491086646     2.6769582493
C     2.6208264989     0.842305912     2.1351319859
C     0.7483739694     0.9843998205     3.4677096675
C     1.4950638338     1.6885924236     2.4530341398
C     -0.559716625     -0.950060739     3.272911395
C     -0.5646055902     0.492544446     3.029954855
C     -1.1232738053     -1.8203454349     2.2887192717
C     1.0091325703     -3.0785726977     2.3431868351
C     -0.3395504482     -2.9767729562     1.9039750746
C     2.7151685107     -1.8451432682     1.2627470838
C     1.825253638     -2.9252053458     1.1157913571
C     2.8547175408     0.5436757639     0.7309072917
C     2.7457510108     -0.8286484848     0.2328849804
C     2.4890583721     1.5657099384     -0.1370166572
C     0.8219302592     2.4209130215     1.4711465709
C     1.6195659937     2.6845503913     0.3091852065
C     -1.2209311511     1.0957225852     1.9519992379
C     -0.608810976     2.2609568104     1.2711594422
C     -2.0464003407     -1.2259852878     1.2994354648
C     -2.1742191583     0.2566275277     1.2040742832
C     -2.3676021422     -1.9780417545     0.1460363934
C     -0.3275021682     -3.3128664731     0.4894108034
C     1.0213924727     -3.0863803793     -0.024643515
C     -1.3927530368     -2.9893389827     -0.2991972327
C     2.0608640315     -1.0597878627     -1.0430373974
C     1.2097782736     -2.2445910666     -1.1682142614
C     2.2106966489     1.3502907282     -1.5272901557
C     1.8052817259     0.0651537424     -1.9646969732
C     1.070682667     3.2828017717     -0.7902395104
C     1.5418427122     2.5544067358     -1.9856714377
C     -1.204054545     2.8007073645     0.0622105739
C     -0.3542549811     3.457657742     -0.9245087137
C     -2.8068787807     0.8328120244     0.1028966175
C     -2.400710871     2.1492130595     -0.4320952275
C     -2.8980535785     -1.3551671641     -1.0456358609
C     -3.2474441     0.0148649264     -1.0234728283
C     -1.1397183188     -2.7224787503     -1.6690949392
C     0.1134646912     -2.2276464957     -2.0955090373
C     -2.1765442778     -1.8454441079     -2.1777993177
C     0.690039023     0.0250640201     -2.977283728
C     -0.1521875534     -1.103020744     -2.9856710192
C     -1.613028661     -0.9593813447     -3.1155983294
C     0.5451761304     2.5442841045     -2.9041603434
C     -0.620828993     3.2833213738     -2.3284599154
C     0.0788778725     1.2813405605     -3.4457835622
C     -2.704510829     2.1516616807     -1.8143774067
C     -3.0718432542     0.7772785018     -2.1887324541
C     -2.1889117044     0.328895117     -3.2382664328
C     -1.7391063425     2.5975370917     -2.7431903781
C     -1.3270960128     1.4038256096     -3.5551233018


