54

 C     1.5307931199     0.1184777704     3.7334697599
C     0.7389677464     -1.0908607533     3.6071601092
C     1.3494136544     -1.9326577843     2.6451530237
C     2.5925565779     0.0998049937     2.8474145005
C     2.5820997585     -1.2219216938     2.2348279336
C     2.4917067902     1.2891848655     1.9783721317
C     0.6811066424     1.2645118295     3.4646616526
C     1.3343116749     2.0403536632     2.4429456515
C     -0.6228643797     -0.6615386198     3.4217473114
C     -0.6370417921     0.8185608347     3.2651093713
C     -1.4328569321     -1.4253164129     2.6203938005
C     0.5469777436     -2.6240972182     1.6562438214
C     -0.8631706926     -2.5096335556     1.8295975459
C     1.0604111336     -2.8151364366     0.2827318701
C     2.9735121765     -1.3193440646     0.9426577637
C     2.3732459096     -2.2958906843     0.0232277303
C     2.7713017666     1.1976797279     0.5993768339
C     3.2748608086     -0.0935646229     0.1500709718
C     2.0054372006     2.0058223469     -0.3827391498
C     0.5406286562     2.6832763581     1.5141489264
C     0.9483440916     2.8055637559     0.1326114298
C     -1.481323831     1.4405940009     2.2631418611
C     -0.9036252262     2.5169991898     1.5313311201
C     -2.5012870028     -0.8002028798     1.8223785894
C     -2.5211917526     0.6340100005     1.6037185545
C     -1.7308499804     -2.6630469248     0.7143794997
C     -2.8034299484     -1.6812539641     0.7788214355
C     0.1251430501     -2.8697898449     -0.8664708538
C     -1.282352787     -2.7484371763     -0.6044865315
C     0.5356744708     -2.392884498     -2.1547754392
C     2.735486853     -1.8714119657     -1.2651596609
C     3.2093161365     -0.4561405131     -1.1773627703
C     1.8685455224     -1.9426008536     -2.3336949399
C     1.8865214023     1.5599921435     -1.7861852024
C     2.5246209276     0.3119177747     -2.170000187
C     1.8332188799     -0.6280742301     -2.9934049376
C     0.7381853635     1.9291046913     -2.5390936309
C     -0.2367709494     3.1112825555     -0.6399821858
C     -1.3941965242     2.8901096803     0.2283885526
C     -0.2962305251     2.7683690467     -1.9895302747
C     -3.0488792987     1.0761690092     0.3584554948
C     -2.5403986368     2.2754324409     -0.2845944053
C     -3.1005485431     -1.2433605812     -0.5364282943
C     -2.1658006818     -1.893994824     -1.428730142
C     -3.391752186     0.1216803431     -0.7202846223
C     -0.3171630968     -1.4834692312     -2.9312291473
C     0.5238642809     -0.4049889216     -3.423998143
C     0.0381017034     0.9328351817     -3.3985206886
C     -1.6765392514     -1.2141560216     -2.5844071656
C     -1.5662928184     2.3416640175     -2.5423558694
C     -2.6349128546     2.0835080024     -1.7108343491
C     -3.1042834483     0.7159068123     -1.9659404413
C     -1.3331514251     1.1522161524     -3.360310135
C     -2.2274394573     0.0987471082     -2.9020180497


