54

 C     1.3863422099     0.0352115388     4.0035277918
C     0.5797716661     -1.1715411269     3.8058000469
C     1.3020654624     -2.0821572777     3.0491477693
C     2.5241095182     -0.0884935625     3.1125158903
C     2.5774309953     -1.3995753544     2.6249901684
C     2.515246374     0.9875945877     2.1363825409
C     0.6150102981     1.0765951829     3.4829449627
C     1.3269022467     1.7617676765     2.4056357946
C     -0.7292129808     -0.8088639532     3.3128860926
C     -0.7248613666     0.6338080533     3.1766254634
C     -1.3827428505     -1.5846738682     2.3057951755
C     0.7570935024     -2.7203031655     1.9005924127
C     -0.6142621117     -2.5530007099     1.5134863883
C     2.790280634     -1.6764902902     1.2644533245
C     1.7855437531     -2.681471722     0.8736236819
C     2.9081474967     0.7528730312     0.7797635649
C     3.1231944706     -0.6284750767     0.3261718367
C     2.4155962194     1.7003897824     -0.1676926939
C     0.6202061355     2.428545973     1.3837300654
C     1.3230291378     2.577121973     0.1526595286
C     -1.4969482017     1.2959907812     2.1842846933
C     -0.8601536626     2.352462276     1.3471438023
C     -2.4653867811     -0.9139598767     1.6683558273
C     -2.5583841285     0.5381254941     1.645737857
C     -2.9647328488     -1.3645627596     0.4254248441
C     -0.9532596327     -2.7260716022     0.0819010333
C     -2.165051459     -2.1410331519     -0.4288997626
C     1.4693409537     -2.864359998     -0.4518419738
C     0.0835389341     -2.9106560886     -0.8694475385
C     2.8885736945     -0.9248628505     -1.0543628843
C     2.2041145664     -2.1216633758     -1.4305007693
C     2.317803364     1.4076824348     -1.5872069192
C     2.5291609615     0.1036261898     -2.0219447089
C     0.6306222873     2.9294923372     -1.0649888917
C     1.2503479949     2.2106893795     -2.1654310266
C     -1.5077133656     2.7420204014     0.171585789
C     -0.753137603     3.1335097191     -1.0285859288
C     -3.2054419552     0.9334415316     0.4035556926
C     -3.5050781108     -0.2407985557     -0.3268152444
C     -2.7416015996     2.0750796904     -0.2874426257
C     -2.2564589191     -1.5407627296     -1.7769953292
C     -3.133230805     -0.3744059691     -1.6880965723
C     0.0193405051     -2.2863180862     -2.1897465283
C     1.3265160861     -1.8405843145     -2.5113244471
C     1.5688426946     -0.4874707081     -2.9662585586
C     -1.1205143327     -1.5176180252     -2.614715344
C     0.4324579029     1.6766061405     -3.1761384872
C     0.5218054647     0.2469710284     -3.4621841925
C     -0.8640764037     -0.3084937457     -3.4125026343
C     -1.5245936365     2.7439779703     -2.1716904686
C     -2.7236324751     2.0307598879     -1.6996770556
C     -2.8474078206     0.7995591157     -2.4261502079
C     -0.952242934     2.0169579937     -3.2038121291
C     -1.7423095352     0.7678077341     -3.3542691257


