54

 C     1.5716771137     0.0686618011     3.8663085197
C     0.7729667331     -1.1328277368     3.6282110866
C     1.5220352231     -2.0463007491     2.8957760206
C     2.688193646     -0.0163338787     2.9411113585
C     2.7092760644     -1.3071627704     2.3893902325
C     2.6597308884     1.1031238536     2.0290858307
C     0.791792859     1.1225510141     3.3846060825
C     1.510871515     1.9044474177     2.4035841718
C     -0.5483978091     -0.7658165706     3.121777993
C     -0.5417339118     0.6735388872     3.0010830515
C     -1.2187552587     -1.5648599466     2.1654672036
C     0.9359179803     -2.7414771193     1.8162523161
C     -0.4871225362     -2.7145173468     1.602553907
C     2.767199317     -1.5310974017     0.9907063428
C     1.7866944118     -2.5647381214     0.6623992746
C     2.9280069676     0.9276669402     0.629524856
C     2.9595213913     -0.4422836026     0.0727579857
C     2.4635597998     1.9782589958     -0.202880337
C     0.8071191527     2.6889647617     1.4811408832
C     1.5229824546     2.9672189979     0.2711544988
C     -1.2695647058     1.3546374811     2.0016834416
C     -0.6715793714     2.5738168369     1.4087085207
C     -2.2314364979     -0.8992520367     1.3356209528
C     -2.259317561     0.5660151398     1.270692804
C     -2.7812062511     -1.6422722915     0.242569349
C     -0.9145170525     -3.2433020653     0.3697778072
C     -2.2027887897     -2.883107421     -0.1524255288
C     1.2793366775     -2.747096874     -0.6517278845
C     -0.0172723049     -3.334406368     -0.7685312097
C     2.4726104077     -0.6426830057     -1.2557706414
C     1.691072294     -1.7935904872     -1.6355105447
C     2.1707158874     1.7728976489     -1.6267114098
C     2.074512862     0.4607383962     -2.0979960933
C     0.830497176     3.4841115464     -0.8633170475
C     1.2077735434     2.7070480862     -2.0536777043
C     -1.3031742509     3.1290338631     0.2771488761
C     -0.5341205103     3.6514933731     -0.8453932325
C     -2.8492428135     1.1865695303     0.1206467365
C     -2.4152561927     2.4409306567     -0.3014146022
C     -3.1910735519     -0.9698541357     -1.0079954698
C     -3.1424392616     0.3944625876     -1.0869720853
C     -2.1709952759     -2.9670443464     -1.5866698939
C     -0.8115686875     -3.0918447645     -1.9490067941
C     -2.6518257032     -1.7226054302     -2.1065144265
C     0.7685427987     -1.375976069     -2.6704503876
C     0.9333722545     0.0556362122     -2.8865883445
C     -0.4755612536     -1.9757503107     -2.8070762332
C     -1.6623476404     -1.1076382552     -2.9409150876
C     0.0198527952     2.3131719045     -2.7314220943
C     -1.0592119915     3.044601598     -2.089012685
C     -2.2074041365     2.3668395845     -1.7627800614
C     -2.5119916107     1.0502653419     -2.2172006905
C     -0.1782098129     0.9233863057     -3.1026148582
C     -1.5377175009     0.3137503228     -2.9791647555


