54

 C     1.3331450099     0.0420011994     3.7991722435
C     2.4032020923     -0.1669459644     2.9302629311
C     2.3772020458     -1.5289471425     2.3937163198
C     0.4731615506     -1.1533723242     3.6616709153
C     1.1636388699     -2.1454013744     2.8820759086
C     -0.8141591176     -0.7043961744     3.2683977755
C     0.5391411579     1.2018886624     3.6564578022
C     -0.7915244066     0.7297621952     3.3411415914
C     0.8609320897     2.2059485533     2.6997664683
C     2.6861871079     0.7678251493     1.869804889
C     2.0062028679     2.035170473     1.8215255418
C     2.5765753758     -1.4334421578     1.0106552808
C     2.8365336612     -0.0146288158     0.6778302356
C     1.893151055     -2.2923681926     0.0778957193
C     0.4257696964     -2.9148328242     2.0180577193
C     0.9569610093     -3.2113493576     0.6781717629
C     -1.5382170874     -1.3466989993     2.197018637
C     -1.0043859827     -2.6375330803     1.8147041915
C     -2.2343786849     -0.5461911322     1.1964671012
C     -1.3545042648     1.5174462586     2.3161157156
C     -0.3959602981     2.5986201481     2.0662947024
C     -2.0850016409     0.9282404015     1.2432642269
C     -0.3926893574     3.2436460047     0.855142249
C     1.9413284902     2.6402162697     0.5352638889
C     0.8447308961     3.4797899121     0.1870305689
C     2.5446375635     0.493693025     -0.6156818007
C     2.2735422182     1.8928425972     -0.6761633326
C     1.6681594715     -1.8268802854     -1.3014869652
C     2.0081306239     -0.4251777823     -1.6591346644
C     0.6501278733     -2.4825609616     -2.0689273491
C     -0.1297065915     -3.6853165864     -0.084301794
C     -1.3603853609     -3.202867401     0.5917427243
C     -0.2545819761     -3.3829042461     -1.4171620934
C     -2.5960294594     -1.1753086319     -0.0901122
C     -2.173647344     -2.5448617423     -0.3591189366
C     -1.6142124422     -2.8680612518     -1.6501405132
C     -2.8190922051     -0.3696586172     -1.2365046179
C     -2.2131438185     1.7349092973     0.0110580384
C     -1.3940002284     2.8916734341     -0.1639049412
C     -2.6822293934     1.0951685583     -1.1901789748
C     0.5898258078     3.375993488     -1.2222722781
C     1.5081919216     2.446900945     -1.776259297
C     -0.8187540549     3.2001617652     -1.4656472453
C     1.3704256295     0.1620648854     -2.7759701944
C     1.077480718     1.605106055     -2.8205466702
C     -0.1483639734     -1.7403938602     -3.0351260961
C     -1.5780492645     -1.9388990321     -2.6788939252
C     -2.4017793154     -0.7934535568     -2.5597802482
C     0.2693110683     -0.5029347185     -3.4629942904
C     -2.303445992     1.5620774084     -2.4605054943
C     -1.2185244229     2.4894851003     -2.5994598855
C     -0.2068163705     1.8079138658     -3.3852148038
C     -2.0265649016     0.3765753328     -3.2786785753
C     -0.7275479067     0.5102652086     -3.7665380118


