54

 C     1.3880329906     -0.1798895502     4.0038871873
C     0.6196324274     -1.2994370312     4.0249644716
C     1.1322059466     -2.2500547582     3.0277510991
C     2.4422189199     -0.3209716855     3.0017517938
C     2.201414086     -1.5685097444     2.2974777771
C     2.4303303175     0.851551311     2.2541430292
C     0.5708110687     1.0080042386     3.675226254
C     1.2628336534     1.6914861685     2.692004933
C     -0.7391031792     -0.894606891     3.6332041048
C     -0.7683920824     0.5595345135     3.360775167
C     0.0248396586     -2.6037671396     2.2564253918
C     -1.1495337953     -1.7682933871     2.6447182142
C     0.1563452661     -2.9793772346     0.8912123257
C     2.2449856284     -1.5939923593     0.855528864
C     1.3502420976     -2.537372292     0.1690975586
C     2.7739143962     0.8481261067     0.8742914298
C     2.6741143678     -0.4032700682     0.128086662
C     2.5253849251     2.0762492564     0.2230285663
C     0.5667360151     2.4473190263     1.703211957
C     1.4119787637     2.9176948626     0.6647330718
C     -1.4247744336     1.0412909696     2.1952474579
C     -0.8292016324     2.1690450132     1.4506085865
C     -2.0785366923     -1.3490381763     1.6373182955
C     -2.2968664035     0.0972636922     1.4560850085
C     -1.077150337     -3.1015287975     0.1990312874
C     -2.2175094429     -2.2270560329     0.5539309025
C     -1.0881970748     -3.2392031798     -1.2062373103
C     1.2514697649     -2.4841037053     -1.246582735
C     0.073902577     -2.9603115518     -1.9157766294
C     2.3946783749     -0.2783711454     -1.3119723669
C     1.6776055332     -1.310614764     -1.9519572289
C     2.5948560661     2.2028198817     -1.2058674716
C     2.3334814888     1.0161791035     -1.939225523
C     0.8598201695     3.4738291838     -0.5148519181
C     1.7031863496     3.2370432175     -1.6454018999
C     -1.3622325591     2.545520886     0.1412622713
C     -0.5307130402     3.2167612617     -0.8156641617
C     -2.8586048833     0.4991260647     0.2380532975
C     -2.4383936678     1.762423912     -0.4000499158
C     -2.8396476001     -1.802912026     -0.6798449798
C     -2.1954300982     -2.4537202681     -1.7765536251
C     -3.2202734001     -0.4496377775     -0.8016944084
C     -0.2764427876     -2.0414359769     -2.9951626275
C     0.6734324247     -1.0268983235     -3.0146483586
C     -1.6902576754     -1.7123173473     -2.8739357157
C     1.2638188613     1.3336564949     -2.9155474446
C     0.8469658183     2.6578927972     -2.6207142466
C     -0.5470977667     2.8237442179     -2.2261196325
C     0.3109152774     0.3442509699     -3.3142821078
C     -2.5426600978     1.5636449451     -1.784347146
C     -2.9536701662     0.1993460899     -2.0454851246
C     -2.0719803365     -0.3465687354     -3.0099246152
C     -1.4858783104     1.9158653183     -2.6872649566
C     -1.0776057712     0.6835904762     -3.3539448058


