54

 C     1.3824214368     0.170177056     3.9384986895
C     2.522381702     0.0654021148     3.121161942
C     2.4883659435     -1.2350027168     2.4655400302
C     0.5210250567     -0.9829831017     3.627234725
C     1.2078630873     -1.8363300252     2.7113341141
C     -0.7761449948     -0.5068512084     3.2952571728
C     0.5794286359     1.3305551676     3.8611215897
C     -0.8119113167     0.9086399506     3.513151367
C     0.9279317242     2.372616416     3.0113380778
C     2.8087923812     1.0546593479     2.1064927818
C     2.0053758861     2.2181373238     2.0654597259
C     2.9258039346     -1.0797524324     1.1341452317
C     3.1003247866     0.348866214     0.8536759857
C     2.3734361625     -1.9080254829     0.1573263362
C     0.4831313719     -2.4672691678     1.6442080158
C     1.2079025157     -2.7021709547     0.4377059104
C     -1.52544695     -1.0779024367     2.203624768
C     -0.9580547625     -2.2173138721     1.5078542516
C     -2.4386936722     -0.1914223502     1.475998003
C     -1.3152156215     1.757879816     2.515984744
C     -0.2751340942     2.7307523039     2.2345498766
C     -2.1263015196     1.2414843894     1.4495234018
C     1.5087324059     2.6530973712     0.7737791285
C     0.0692475661     2.9787503483     0.9246224477
C     2.7312551047     0.8445221673     -0.412227534
C     1.9392075365     2.091709515     -0.4307800319
C     2.3220252558     -1.4783556783     -1.2222484119
C     2.5336395413     -0.1030930906     -1.5393027915
C     0.5566752844     -2.9430118988     -0.8376250729
C     1.3017513849     -2.2557946013     -1.8838482642
C     -1.5923929251     -2.639636222     0.2899713181
C     -0.8160436846     -3.0143726169     -0.9152371643
C     -3.1202780656     -0.7236430076     0.3572593382
C     -2.7540543216     -2.0158658297     -0.1503553127
C     -3.390863206     0.0864238898     -0.7838030015
C     -2.0776928337     1.9161067383     0.1670532825
C     -0.8757194859     2.7166337251     -0.1308038951
C     -2.7543297253     1.3236688047     -0.9472683812
C     1.1033615818     2.3662445347     -1.5804651792
C     -0.3421097568     2.6774057701     -1.417665354
C     1.9038976243     0.3610288066     -2.741619675
C     1.2617387701     1.6697194584     -2.7605588698
C     0.6379222327     -1.755741603     -3.0106959652
C     1.0517152044     -0.4898449904     -3.4898408159
C     -1.5286618319     -2.5237612441     -2.0992828157
C     -2.7608689317     -1.967645784     -1.6256579654
C     -3.1728635695     -0.7034012157     -2.0138543906
C     -0.8299812284     -1.8470197719     -3.11155528
C     -2.2222389717     1.3877011562     -2.323872945
C     -1.0414554103     2.0908529538     -2.545317273
C     -0.0442970812     1.5395509855     -3.4243304262
C     -0.1676656469     0.2460950097     -3.8946659191
C     -2.4154579733     0.0727775387     -2.9450368556
C     -1.3214765472     -0.5552475802     -3.6059526649


