54

 C     1.1649558331     -0.1591672512     3.9294130583
C     2.1818987499     -0.4226784018     3.0448717936
C     1.895182632     -1.7094532049     2.3661535722
C     0.2375277308     -1.3227838011     3.894336746
C     0.660329137     -2.2194712941     2.8129643083
C     -1.0452146514     -0.8306936652     3.9093762548
C     0.3723472344     1.0535713684     3.7649185227
C     -0.9945644021     0.6562858795     3.78104106
C     0.7758830633     1.9911813617     2.8002714535
C     2.6035775873     0.5097466964     2.0380353227
C     1.9698354335     1.7630003265     2.0005242593
C     2.233198383     -1.5642747641     1.0049725722
C     2.7528346884     -0.2221544872     0.7902451564
C     1.4698549889     -2.2160199437     -0.0024058889
C     -0.2752846438     -2.6778361484     1.8093327073
C     0.2170443572     -2.8318866757     0.4306217139
C     -2.0076960395     -1.3331871568     2.9942518597
C     -1.651438064     -2.281044938     1.9828793699
C     -1.8693520788     0.9981015048     2.7165973464
C     -2.5685942447     -0.1988063164     2.3167447661
C     -0.2059558586     2.5343374239     1.8612346745
C     -1.4803165199     1.915464964     1.6800541186
C     1.8048091816     2.3945782019     0.7156376619
C     0.4950805616     3.005018927     0.7063035637
C     2.6370271685     0.3941957298     -0.4759567476
C     2.311610315     1.8310446736     -0.4922571763
C     1.6908595412     -1.7728233232     -1.3834126924
C     2.2978350925     -0.4540466472     -1.6206073602
C     0.8076091971     -2.3100172677     -2.3853377389
C     -0.7629031347     -2.9891459154     -0.5992786221
C     -0.4243997029     -2.8505935876     -1.940681246
C     -2.4228414836     -1.9059469129     0.8098043524
C     -2.8317561031     -0.5164264162     0.9570591255
C     -2.0690136773     -2.3446404199     -0.4233051554
C     -1.9982448701     1.708624804     0.2927505036
C     -2.6066645192     0.4077094075     -0.0961930348
C     -0.1764335407     3.1770544356     -0.4988493479
C     -1.4355250474     2.4552559873     -0.7414393167
C     1.8006608017     2.3921916909     -1.7053741474
C     0.5668787948     3.1182122492     -1.6798935322
C     2.0364619278     0.2233075617     -2.883435706
C     1.8013585902     1.611231045     -2.8972685761
C     0.502465968     -1.5556613498     -3.584138715
C     1.0989860534     -0.3631573774     -3.8430069295
C     -1.5116697258     -2.0891553013     -2.6260564914
C     -2.3331878245     -1.5390409692     -1.5948839953
C     -2.4643369865     -0.1117122487     -1.4705749688
C     -0.9711983298     -1.320488105     -3.6095402265
C     -1.4499882824     2.0407595997     -2.150849745
C     -0.2832430775     2.6004170482     -2.7497401814
C     0.517562293     1.846077486     -3.6198087225
C     0.0451585173     0.6497452586     -4.1213528991
C     -1.9033552526     0.7315745555     -2.5459258976
C     -1.2056557714     0.1036257129     -3.6688208027


