54

 C     1.4982931898     -0.1009983839     3.9938708591
C     0.6705817408     -1.1975040069     4.0733833636
C     1.1518367675     -2.2621356251     3.2141140749
C     2.5011641712     -0.3883369979     2.9394416789
C     2.2739131544     -1.7527561756     2.4689460633
C     2.4047478437     0.6303437214     1.9945882531
C     0.7015519817     1.0198712315     3.5733973233
C     1.3462041388     1.5815531893     2.4596554799
C     -0.6935649666     -0.837889929     3.667908534
C     -0.6936066473     0.5752602164     3.3784572406
C     0.0219047666     -2.7255266004     2.4862937073
C     -1.0892109606     -1.7352395847     2.6659106163
C     0.239673869     -3.2720110693     1.2468582565
C     2.4006770008     -2.0664251267     1.0822766783
C     1.537614914     -3.1241495618     0.6192867922
C     2.5300419905     0.4045710291     0.5655910458
C     2.6814038365     -0.9782624735     0.1144856579
C     2.0303558218     1.4295366474     -0.3245174465
C     0.6159365518     2.3026722926     1.5238076586
C     1.2173592094     2.5516115266     0.2164402503
C     -1.3910095153     1.0458000634     2.2645553094
C     -0.8271782048     2.2195809323     1.5989495925
C     -1.8288524936     -1.3018575091     1.5036886931
C     -2.1241440256     0.1128098703     1.3784222541
C     -0.7725856893     -3.1772337657     0.190366754
C     -1.7811952532     -2.1343748157     0.2928110326
C     1.3130918149     -3.3297240483     -0.7664197099
C     -0.1398246237     -3.4451000578     -1.0339201448
C     2.4571416939     -1.2397537243     -1.2732581663
C     1.8530672933     -2.4841586975     -1.704975086
C     1.8243781604     1.1164192888     -1.7327873805
C     1.9577076709     -0.2279653787     -2.1405813135
C     0.9926696099     1.9655418894     -2.5472218609
C     0.5068622603     3.396505345     -0.6338868827
C     0.5493708086     3.1996426729     -2.0819003819
C     -1.5472659688     2.8379967425     0.5816509064
C     -0.8998188305     3.7122098403     -0.3107198159
C     -2.6636996564     0.63087371     0.1311723594
C     -2.5889865769     2.0541604486     -0.1498952262
C     -2.2091992555     -1.5720328246     -0.9356133703
C     -2.7281308576     -0.2256465662     -1.0013632332
C     -0.4296184901     -2.7097187036     -2.2163292755
C     0.8336200975     -2.1806753364     -2.7123111521
C     0.9269378217     -0.8362833587     -3.032789449
C     -1.5392248023     -1.8542242893     -2.1968628547
C     -0.11467987     1.3414551489     -3.3707755963
C     -2.4816375     0.2954018262     -2.3374398279
C     -0.2529893367     -0.0769981127     -3.3555383173
C     -1.5092303157     -0.614206781     -2.9301464487
C     -0.8034847675     3.3802066868     -2.5890345062
C     -1.6500136121     3.6472214342     -1.5348259679
C     -2.6461027989     2.5612673284     -1.4503218506
C     -1.2333524391     2.1775703909     -3.2904635275
C     -2.3995007218     1.6611060313     -2.572431653


