54

 C     1.5823217744     -0.0130401157     3.7372036641
C     0.7473336728     -1.2056886446     3.5767457613
C     1.2389449807     -1.9747337743     2.5005335279
C     2.5926302353     -0.0647462452     2.7437762513
C     2.5090655225     -1.34242297     2.1054469971
C     2.4886461675     1.082776971     1.8591497221
C     0.7231815389     1.0442895177     3.3806699897
C     1.2483294719     1.7330152821     2.199486749
C     -0.628868055     -0.8181412983     3.5842141058
C     -0.6545446476     0.6320633622     3.4149700483
C     -1.5239295839     -1.5811840775     2.8295956497
C     0.3448884679     -2.4610101991     1.4415880258
C     -1.0337604987     -2.3701305455     1.6896721214
C     0.7835572029     -2.4925133862     0.036307556
C     2.9396587825     -1.4478578397     0.8110961386
C     2.1840381227     -2.2369363137     -0.1921955227
C     2.9244485662     0.9837372278     0.5171442426
C     3.4756135027     -0.2978397469     0.1275735543
C     2.2131510901     1.772417928     -0.4974341983
C     0.3710992465     2.2189525327     1.2068121875
C     0.8937284685     2.3252652373     -0.1733028351
C     -1.600426946     1.255753506     2.5720685308
C     -1.0894674993     2.1420446192     1.4801454802
C     -2.6943857149     -0.9390772378     2.4132394859
C     -2.8073246752     0.4823712206     2.344906655
C     -1.9835521848     -2.2227782539     0.5950662182
C     -3.1123161694     -1.4905433722     1.1178329709
C     -0.1448420361     -2.247550018     -1.0689692593
C     -1.5629869716     -2.0196983407     -0.7452958208
C     0.3753812053     -1.8031067948     -2.3839646512
C     2.6557426956     -1.8653984089     -1.4415319173
C     3.4912102591     -0.6562525963     -1.2415923469
C     1.8017650711     -1.6390120225     -2.5598837758
C     2.5357565048     1.4844371366     -1.8882898104
C     3.2003298127     0.2337172346     -2.2334343999
C     2.336843218     -0.4630971439     -3.224537892
C     1.5857538927     1.7143133186     -2.9074602578
C     1.4759715323     0.4696472157     -3.7430496305
C     -0.0677270396     2.5299946137     -1.2602899372
C     0.2922864502     2.1734619732     -2.628161419
C     -1.9524558544     2.372372442     0.393265455
C     -1.4477606381     2.496590705     -0.958409496
C     -3.6235343135     0.7419520967     1.1992180081
C     -3.7838358315     -0.5264646357     0.405350766
C     -3.2412675994     1.6996027891     0.306061667
C     -2.3790249507     -1.0855508718     -1.5752949586
C     -2.3632203201     1.7427824971     -1.8321632767
C     -3.4267840015     -0.2733941651     -0.9441398226
C     -3.3457816794     1.1590707175     -1.0587610172
C     -0.4577108971     -0.9353095795     -3.1874595039
C     0.1165626059     0.1757721585     -3.8788919622
C     -0.6176292147     1.3465026795     -3.4054928346
C     -1.7539352915     -0.4952561681     -2.6807605862
C     -1.8311674177     0.9558298035     -2.878374387


