54

 C     1.1692542588     -0.0465182254     3.8205340607
C     2.3029018975     -0.3694167287     3.1525189794
C     2.1454219379     -1.7657520308     2.6489624663
C     0.2620771331     -1.2528554064     3.7851642091
C     0.8043493397     -2.1993595835     2.8414657703
C     -1.0128141383     -0.801735343     3.702652461
C     0.386591767     1.118214015     3.4868657686
C     -0.9595022867     0.689164934     3.6526879927
C     0.7318452093     1.891213963     2.298587487
C     2.7597112796     0.4341339229     2.027854089
C     1.9645778756     1.5621732905     1.5672681912
C     2.7874870133     -1.8171178585     1.4237601606
C     3.2942189336     -0.4719632275     1.0832225507
C     2.134615094     -2.3400690018     0.2942396142
C     0.0152693165     -2.5694501912     1.6713719386
C     0.7599019481     -2.7758799082     0.412781605
C     -1.8853829902     -1.2278561671     2.6180857306
C     -1.3741239367     -2.098192027     1.5702404799
C     -1.9889088912     1.0921621639     2.8196673212
C     -2.663568417     -0.1005469037     2.2678839755
C     -0.3957425798     2.4452933802     1.5222608596
C     -1.7472235972     1.9883921789     1.7642538996
C     -0.1497570712     2.9126129939     0.2162094491
C     2.0978573997     1.9204223777     0.1497247968
C     1.1358591591     2.8214355843     -0.3974742119
C     3.1187846     -0.2985652728     -0.2947653061
C     2.5303460264     -1.5009397202     -0.836421064
C     2.712033493     0.9700025756     -0.81178989
C     1.79819049     -1.4794725801     -2.0409633282
C     0.0403104622     -2.8132560673     -0.7977790465
C     0.6245162088     -2.3342018604     -2.0874984516
C     -2.0213378666     -1.9898874979     0.2568785761
C     -1.371225156     -2.6077680788     -0.8531976043
C     -2.9974585863     0.1884241969     0.9394604055
C     -2.5670468006     1.5342568177     0.6414061783
C     -2.8771825922     -0.8200792996     -0.0657660316
C     -1.1800005132     2.838475353     -0.8641923096
C     -2.3107593755     1.9447867202     -0.6826850213
C     0.9155364916     2.9052634966     -1.8155783774
C     -0.5396866014     2.9074650896     -2.0878578506
C     2.2887135013     0.9442244935     -2.1707993821
C     1.806387448     -0.2775995607     -2.7930810589
C     1.4758970697     2.0044337176     -2.6802937462
C     -0.8316734397     1.991415134     -3.1701174648
C     0.6556401665     0.0602590529     -3.6711837393
C     0.4321128168     1.4471418727     -3.5688850424
C     -0.4099809559     -2.0453489772     -2.9584160881
C     -1.6719864714     -2.2185517909     -2.2039906059
C     -0.464717775     -0.8145408869     -3.7185506005
C     -2.9609401893     -0.3339721852     -1.4012271787
C     -2.6569107851     1.0497110703     -1.7263645166
C     -1.9135814575     1.0817098735     -3.0131707248
C     -2.4463689229     -1.1234321859     -2.4765265368
C     -1.7525269502     -0.2484597018     -3.4474338184


