54

 C     1.0494139011     0.0495389134     3.7308880384
C     2.1578563696     -0.2314796599     2.9612248433
C     2.1157707437     -1.6400891222     2.546627889
C     0.2059055098     -1.1627429545     3.7018851974
C     0.7956361176     -2.1082274661     2.7801016926
C     -1.0734821562     -0.7262052714     3.4760255856
C     0.2423296904     1.1936265728     3.4155025757
C     -1.1157819527     0.7535746016     3.5062671813
C     0.5997309565     2.0469889944     2.3012235067
C     2.5032914303     0.5300248332     1.7921470458
C     1.7350109659     1.6680733713     1.4149931838
C     2.7335857924     -1.7580550013     1.2992854492
C     3.0101060177     -0.4098289686     0.7944577679
C     2.197801527     -2.6938883637     0.4050006241
C     0.0206653424     -2.5824184277     1.6327839016
C     0.7683973093     -3.0013169873     0.5113919695
C     -1.8706942723     -1.1501950266     2.3553815362
C     -1.3274588542     -2.0392884092     1.3693193389
C     -2.1222875592     1.1925100423     2.6433763997
C     -2.6867003613     -0.0064377752     1.9818511761
C     -0.4959456005     2.7517824581     1.7159750635
C     -1.8818480563     2.3298331582     1.8647638727
C     -0.3764004154     3.24826437     0.3931874949
C     1.7105081548     1.9956107638     -0.0204082686
C     0.6738495005     2.8686342487     -0.4764106658
C     2.9944653207     -0.1395723849     -0.5907557064
C     2.3476998648     1.1182380977     -1.016724338
C     2.5124483405     -2.5381608969     -0.9471164067
C     2.9880814566     -1.3076257214     -1.4724499671
C     0.2304764113     -2.9980077164     -0.847357696
C     1.3472607643     -2.9328593868     -1.7498571453
C     -1.8119704294     -1.9040129786     -0.0146570497
C     -0.9925409166     -2.3383580624     -1.1583958657
C     -3.1824382676     0.0930363404     0.7120893523
C     -2.8248895865     -0.9267244788     -0.2669883786
C     -2.5435550812     2.4885308928     0.5733362268
C     -1.6473007296     3.1953143877     -0.2942842957
C     -3.2570307239     1.3992094467     0.0250350511
C     0.0597539732     2.7260512261     -1.791288267
C     -1.4074094032     2.8117400519     -1.6370643961
C     1.8517685056     1.1672805635     -2.3619222777
C     0.6231001124     1.8694086534     -2.6950309196
C     2.4149729646     -1.2033261542     -2.7961099703
C     1.3224130347     -2.190769882     -2.9111852105
C     1.88346381     -0.0050277088     -3.1960961417
C     -1.0680217305     -1.6242267444     -2.4630647442
C     -0.2404650072     0.9405284447     -3.4599430129
C     0.1145144058     -1.5157770755     -3.2921771731
C     0.5116533605     -0.2081812845     -3.7150538288
C     -2.9040985398     -0.2867051035     -1.5269271044
C     -3.1433861561     1.1296078833     -1.361375901
C     -2.2040570237     1.7975043526     -2.2141097561
C     -1.9721010827     -0.5236863451     -2.5689312668
C     -1.5720677281     0.7882826491     -3.0584362099


