54

 C     1.458932813     0.011029878     4.21902791
C     0.6588760175     -1.1957903394     4.0964612352
C     1.4103038848     -2.1341199411     3.397066886
C     2.577167809     -0.1305352533     3.2644132475
C     2.6364336237     -1.4507443569     2.8353228623
C     2.5377278926     0.9411399113     2.2954102244
C     0.6830492904     1.0543238625     3.7417343961
C     1.3918359401     1.7657612887     2.6872839535
C     -0.66266633     -0.8397586273     3.5502963861
C     -0.6690658202     0.5804691146     3.4028728972
C     -1.2879101792     -1.654347305     2.515408077
C     0.837405547     -2.8804305082     2.3480441852
C     -0.5175782015     -2.7256780623     1.919732491
C     2.660086099     -1.748706147     1.4416385157
C     1.6989686833     -2.80351847     1.1926910953
C     2.7126829217     0.6832392302     0.9075891447
C     2.7710705423     -0.7157054354     0.4559163263
C     2.173816796     1.6830238319     -0.0344669238
C     0.6557668506     2.4474877535     1.7471664667
C     1.1410817687     2.5771489169     0.4134044022
C     -1.4255141209     1.2461754171     2.3752536179
C     -0.8103734493     2.3257889169     1.669205967
C     -2.1985597364     -0.9971104806     1.6534191511
C     -2.3605693017     0.4537311017     1.6380223546
C     -2.4343187631     -1.4474575157     0.3059824954
C     -0.5026854944     -2.8604422957     0.4764509218
C     0.9030561853     -2.831585983     0.0442297736
C     -1.4762978124     -2.292332964     -0.3535408733
C     2.2878326177     -1.0223534478     -0.8799906802
C     1.2541727535     -2.0717221471     -1.0903152282
C     2.1731143879     1.4012599491     -1.4056576686
C     2.3316314084     0.0059641587     -1.8435840937
C     1.2852665216     2.0550738598     -2.3467732303
C     0.0298860919     2.8915285696     -0.4470545184
C     -1.1792095842     2.6383991145     0.3310446124
C     0.0893425601     2.7013414609     -1.8486827422
C     -2.8282845468     0.8527159705     0.3548643249
C     -3.0240139784     -0.3787345569     -0.4297855591
C     -2.2756862007     1.9869624485     -0.3163930671
C     -2.9797463113     -0.3786619543     -1.8039799134
C     -1.1580557045     -2.0412650665     -1.7723793127
C     0.2616440786     -1.9334853356     -2.1429195662
C     -2.1143335796     -1.3109905266     -2.530930947
C     1.6636240709     -0.1338334286     -3.0631949901
C     1.1383964486     1.1544928053     -3.4471200526
C     0.6071802436     -1.1053743188     -3.2591153467
C     -1.7324830189     -0.607328829     -3.7342848797
C     -0.0738929095     0.9667148911     -4.1404701449
C     -0.3913090939     -0.5104566401     -4.0842146693
C     -1.1747478246     2.444809335     -2.5282008685
C     -2.2926073452     2.0066642321     -1.7553877199
C     -2.9212618066     0.9008391745     -2.4966878124
C     -1.2140378597     1.6807453973     -3.787641749
C     -2.3251448946     0.7456393361     -3.7371813834


