54

 C     1.1169389605     0.0079019104     3.8643724172
C     2.2609942385     -0.2576148371     3.1531524673
C     2.1984278955     -1.6327398772     2.6216045266
C     0.2522611958     -1.207366304     3.7331192361
C     0.8952808722     -2.1500293898     2.8287316947
C     -1.0112740583     -0.7737896914     3.470342334
C     0.3148763398     1.1719139813     3.5442591401
C     -1.0484003601     0.7072464139     3.4505418735
C     0.7861100434     2.0676827056     2.5657085866
C     2.7208816536     0.5990312297     2.0785423058
C     2.0102769405     1.7739720526     1.8314179568
C     2.7834739236     -1.6288219933     1.342539594
C     3.1081372703     -0.2525376531     0.9571122968
C     2.2583581296     -2.5234074937     0.3926121966
C     0.1499543509     -2.7186177336     1.7119493052
C     0.9119394294     -3.0605682636     0.5619746352
C     -1.7924270526     -1.2704748708     2.3594097803
C     -1.2558627497     -2.2825875153     1.494088886
C     -1.8848937059     1.0862286573     2.4157488841
C     -2.4759647668     -0.1451244497     1.8137718044
C     -0.1426128868     2.6211721923     1.5994763507
C     -1.4979135852     2.1717568661     1.5361951456
C     1.8352023447     2.2255476614     0.4596443695
C     0.5578570103     2.8835073008     0.3572901647
C     2.951244072     0.1681421801     -0.3894105139
C     2.3526147327     1.4929646451     -0.6476839455
C     2.4184990857     -2.1831794314     -0.962281646
C     2.7333388277     -0.8739316553     -1.3713040836
C     0.3173788119     -3.1246515196     -0.7779615685
C     1.2730520097     -2.6712590238     -1.7319062446
C     -1.7881095581     -2.3053204596     0.1693398017
C     -1.0139511125     -2.744036665     -0.9647753254
C     -2.9596751209     -0.1332223058     0.4939237489
C     -2.6992871273     -1.287460464     -0.3119916207
C     -2.1559568126     2.2600415463     0.2839534503
C     -3.0501270591     1.1486111508     -0.1761951185
C     -0.1221334337     3.028493181     -0.8807606124
C     -1.568396972     2.8795235752     -0.851274009
C     1.7299579012     1.7419860177     -1.9088993325
C     0.5852443623     2.5918888106     -2.0569204944
C     1.9280588968     -0.62354221     -2.556498081
C     0.9529175324     -1.74010523     -2.7232852177
C     1.5777764319     0.6597613875     -2.9003464807
C     -1.4055215305     -1.9690581513     -2.130945549
C     -2.5603796831     -1.1738116081     -1.7487067402
C     -0.419606317     -1.4354789912     -3.0223129972
C     -3.1098552976     1.2048930563     -1.5514124327
C     -2.2421363838     2.3198677479     -2.0002176811
C     -2.7990876102     0.056437465     -2.3785868723
C     -0.1678411021     2.0984030503     -3.206943403
C     0.3787689336     0.8825565815     -3.6480564877
C     -0.689990344     -0.1373448066     -3.6310681904
C     -1.5879550088     1.9435928725     -3.1421710257
C     -1.9104625776     0.5129583451     -3.4189072692


