54

 C     1.5249397602     0.0476233844     4.0056543619
C     0.7022769092     -1.1519566704     3.8951230949
C     1.3830507116     -2.0955608969     3.1236093753
C     2.6434262496     -0.1063261372     3.091191047
C     2.5797440319     -1.4029858424     2.5754082178
C     2.6210248143     0.9765858176     2.1143682054
C     0.7411505261     1.0683228742     3.4498290771
C     1.441004103     1.751013553     2.3903098465
C     -0.6502054554     -0.7808437481     3.4952006211
C     -0.6251062364     0.6486790215     3.188073703
C     -1.3435628427     -1.6178856022     2.6242612895
C     0.7446159319     -2.7463695259     2.0231679925
C     -0.6372286913     -2.6420173385     1.8615126415
C     2.6387883159     -1.6651297013     1.1710033141
C     1.5621476493     -2.5691408337     0.8279639379
C     3.0066880572     0.7626597733     0.7526075654
C     3.038341003     -0.631043969     0.253844721
C     2.5989764075     1.7662124344     -0.1538418629
C     0.7232786634     2.3993544241     1.3579255345
C     1.5067682321     2.6685909365     0.1920839241
C     -1.35269369     1.1938820615     2.104410634
C     -0.7196411956     2.2138245953     1.2247602864
C     -2.3459411065     -1.0557119436     1.7637207448
C     -2.421892279     0.354949906     1.5531531487
C     -1.2294520007     -2.6641347531     0.5356100642
C     -2.4580360121     -1.9137766184     0.5967484898
C     1.0012636934     -2.57260686     -0.4774880895
C     -0.4549453724     -2.6695545857     -0.6646311301
C     2.7392447879     -0.8716988865     -1.1004969548
C     1.7790125236     -1.8964341208     -1.4652922747
C     2.5578449609     1.5440410606     -1.5976222119
C     2.63587731     0.2215953375     -2.0759954287
C     0.872024117     3.0312877395     -1.0034162316
C     1.5427797611     2.3895048182     -2.1336522262
C     -1.3426521354     2.5353804738     -0.045525453
C     -0.5220530044     2.967720592     -1.1639235142
C     -3.1061998584     0.7852146174     0.3771750142
C     -2.596943524     1.9206781358     -0.3913667963
C     -3.0775620241     -1.4573806062     -0.5496601204
C     -3.7135645545     -0.154673612     -0.5165683117
C     -1.0818939404     -2.1220295614     -1.8850740742
C     -2.4206332343     -1.6322060135     -1.8292850063
C     1.1546070993     -1.4731206933     -2.6639185276
C     1.7148094597     -0.1823420095     -3.0801002005
C     -0.2227839165     -1.5269134209     -2.8891367518
C     0.5492258655     1.9451746954     -3.0301821743
C     -0.749039226     2.4247253269     -2.5150886482
C     0.6445628854     0.6175652028     -3.5235560095
C     -0.5686355181     -0.2375860289     -3.5297338801
C     -2.9086319875     1.6502892556     -1.7492220196
C     -3.6128264022     0.3867558391     -1.822839088
C     -2.7904856046     -0.4604843727     -2.6012474132
C     -1.892374143     1.7067015022     -2.7702231173
C     -1.8024899347     0.3215809734     -3.3196293258


