54

 C     1.5739642926     -0.2637176129     4.4870334271
C     0.7063227761     -1.3312119146     4.5626178522
C     1.1998178745     -2.47204926     3.8135841323
C     2.5805907214     -0.6459569881     3.4636782555
C     2.3532263498     -1.9949482815     3.0464502519
C     2.5926889978     0.3673618308     2.4814392313
C     0.8156032826     0.8434856358     3.9045456037
C     1.4956574601     1.3323727965     2.7912451767
C     -0.6321257925     -0.9246800093     4.0445150564
C     -0.5731236704     0.4524439103     3.6634295849
C     0.195907866     -2.7614040872     2.874622097
C     -0.9795588973     -1.8827063039     3.057048206
C     2.082493301     -2.2241274519     1.6436052752
C     0.7490334627     -2.79711001     1.540257145
C     2.7606822274     0.0552468165     1.1050862983
C     2.4296353796     -1.2877321171     0.6331060535
C     2.4930345422     1.1216808284     0.2223385639
C     0.7911164116     1.9957687683     1.7230553513
C     1.5425083288     2.1504409686     0.5450399482
C     -1.2472394614     0.8882868011     2.4732447511
C     -0.6461775623     1.8817510537     1.5884816012
C     -1.7122698312     -1.4878458939     1.9280547194
C     -2.0961944871     -0.085151639     1.8145515625
C     -0.0632533706     -2.5724302928     0.4181790268
C     -1.4550989695     -2.1682785752     0.6522370658
C     1.7916387064     -1.3902034007     -0.6748077972
C     0.5423297191     -2.1072120093     -0.8103261899
C     2.4346253694     0.9293962025     -1.1875030088
C     2.0862124849     -0.3644644871     -1.6752615222
C     0.9784451775     2.6206936913     -0.6934382018
C     1.7827584684     2.0884089943     -1.7797240631
C     -1.2481384195     2.1948661119     0.2812281555
C     -0.4249307689     2.7305283499     -0.8382530474
C     -2.7574123683     0.3071648395     0.6395491102
C     -2.4403731977     1.5243513145     -0.073662374
C     -2.222542244     -1.7932209898     -0.4420149376
C     -3.0912282494     -0.6664893396     -0.3421203843
C     -0.3120261909     -1.8907509935     -1.9919694963
C     -1.7137615492     -1.810942717     -1.8145594791
C     1.467621873     -0.4142090596     -2.9649087977
C     0.2348234579     -1.2346453072     -3.152147579
C     1.2834985715     2.0279816989     -3.0627365521
C     1.3396427707     0.7414446137     -3.7582805011
C     -0.9152205108     2.7085207103     -2.2060069847
C     -0.0363092843     2.5700639452     -3.2972019467
C     -2.8332686893     1.323872106     -1.4754375606
C     -3.1776697434     -0.052760398     -1.6242326004
C     -2.4938450976     -0.858345056     -2.6105363806
C     -2.1629789935     1.9429493062     -2.5343951794
C     -0.5854725541     -0.6067282111     -4.1078279919
C     0.1227091849     0.5976537753     -4.5390278425
C     -0.6950790911     1.6796728689     -4.2671849998
C     -1.9400615044     -0.2267230335     -3.7193463282
C     -1.9712285888     1.2396374814     -3.7553117365


