54

 C     1.2260511672     -0.0138795329     4.4440254562
C     0.5440737627     -1.1961095726     4.1112023782
C     1.4918725375     -2.1120165511     3.5510517898
C     2.5515647741     -0.0515120419     3.7652147118
C     2.7348925936     -1.3260428918     3.2074672564
C     2.6453847553     1.0864334068     2.9378693227
C     0.4974929705     1.0902422292     3.907145254
C     1.3748282095     1.8357665603     3.1042876366
C     -0.672010573     -0.8579205164     3.3293166324
C     -0.7167972763     0.5849407557     3.260658794
C     -1.0685630699     -1.6432562216     2.1899309984
C     1.1261785441     -2.8357929614     2.4534002326
C     -0.1749128878     -2.7178620877     1.8144425574
C     2.9477852156     -1.4872658296     1.802689587
C     2.1353273299     -2.6271569555     1.4039225746
C     2.8142276719     0.9495621907     1.5295851539
C     2.9622206161     -0.3373796923     0.8974090733
C     0.9490097581     2.3258554201     1.8577881076
C     1.9005067159     1.8875492517     0.8765088632
C     -1.2276916044     1.2147702414     2.112167146
C     -0.4276789483     2.2635241882     1.4701557138
C     -1.858415807     -1.0057159706     1.1309178974
C     -2.0573933468     0.4214315055     1.2134172004
C     -1.9599934745     -1.5907974953     -0.2132735553
C     0.0501357886     -2.8778925781     0.434492861
C     1.516166761     -2.6867328281     0.1894043228
C     -0.870276684     -2.4837000326     -0.5460243263
C     2.4418928967     -0.4850973389     -0.4685464142
C     1.8537811417     -1.7529752039     -0.8454960442
C     1.5388370309     1.8123716807     -0.4797328908
C     1.9394840827     0.656495349     -1.2456182001
C     -0.7095486384     2.635349463     0.138861125
C     0.3510942006     2.561378198     -0.871905239
C     -2.5935719174     1.0979919733     0.1040809209
C     -2.0343098555     2.3493284659     -0.3222413659
C     -2.6703757638     -0.9198108885     -1.3103287395
C     -3.1333959973     0.4253308976     -1.0780066416
C     -2.3165714725     -1.2318350076     -2.695768229
C     -0.3266613097     -2.4373402506     -1.8723871643
C     1.0475882069     -1.8508100689     -1.9876177957
C     -1.0716056158     -1.9550728113     -2.9089389889
C     1.3386853497     0.4796407343     -2.5721160098
C     1.0066754013     -0.8651491243     -2.991269376
C     -0.2104515389     -1.1089153704     -3.7490250106
C     -0.0114516876     2.5521616252     -2.2302890835
C     0.5155209853     1.5320357796     -3.1079059153
C     -2.3883818359     2.5303525399     -1.6702520318
C     -3.2197643793     1.3878413183     -2.1252029546
C     -1.3998830133     2.7970135349     -2.6303904361
C     -2.3722479546     -0.2361333286     -3.7205581577
C     -0.9755411078     -0.1122019187     -4.281587994
C     -0.555222842     1.2441363673     -4.0954278231
C     -2.7884825663     1.0720907699     -3.4300094015
C     -1.6900773091     2.0127806048     -3.7874937589


