54

 C     1.4786107436     -0.1719038833     4.1360482534
C     0.6204214043     -1.3531592752     4.1361042346
C     1.154514941     -2.2741862301     3.1411691577
C     2.5196066732     -0.3952441555     3.1411682698
C     2.3120024147     -1.6797915146     2.5191101753
C     2.6001207475     0.7559659869     2.3100488888
C     0.7433119208     0.9359710789     3.7438261464
C     1.4427775623     1.594336245     2.622726276
C     -0.6603700195     -0.9961471013     3.74376478
C     -0.6407379297     0.4655755559     3.5122438093
C     0.0845357888     -2.7064812775     2.3100232853
C     -1.0704129894     -1.8648413211     2.6226820963
C     0.3414468972     -2.9784087514     0.9656469556
C     2.5124643226     -1.8254315562     1.076954214
C     1.6034368974     -2.6602553997     0.354870593
C     2.9381031767     0.5956477981     0.9656785678
C     3.025490756     -0.7029088727     0.3548933507
C     2.4362641347     1.5125437493     -0.0296660477
C     0.7198745471     2.1851931123     1.5916072027
C     1.3062784617     2.3065093489     0.2326564554
C     -1.3363236566     0.9709236241     2.4495220037
C     -0.7499824306     2.1120105357     1.6735256876
C     -1.8557456368     -1.3598943789     1.5915770887
C     -2.2403677419     0.0606451517     1.6735160489
C     -0.6856543497     -2.7844454131     -0.0296939066
C     -1.7899381892     -1.9550938739     0.2326391895
C     1.3622958538     -2.4825956359     -1.0707833345
C     -0.0262864409     -2.7328857116     -1.3253194113
C     2.7820300616     -0.5284723897     -1.0707644163
C     2.5909647366     0.8694903368     -1.325287672
C     2.0531528975     -1.4917149145     -1.8554136273
C     1.8411186886     1.2969856961     -2.4184231134
C     0.4568346464     2.739150227     -0.8963308524
C     0.7643130158     2.2807703135     -2.2144295642
C     -1.5089886507     2.6367092214     0.6621107614
C     -0.9116960847     3.0687976975     -0.6295916822
C     -2.9739465378     0.6203558695     0.6621213081
C     -2.8260286853     2.0532394528     0.3821366022
C     -2.4639001113     -1.2809144887     -0.8963371758
C     -3.200312853     -0.0812329769     -0.6295926441
C     -0.6645714195     -2.151810794     -2.4184427495
C     -1.9329499687     -1.4316970153     -2.2144404794
C     1.4257170028     -1.0358461023     -3.0629544518
C     1.4482084722     0.3655820236     -3.4028008388
C     0.0998152272     -1.4903059077     -3.402820462
C     -0.2758776571     1.9605122154     -3.1772819507
C     -1.9498274675     -0.3434617317     -3.177304233
C     0.1363527509     0.7646573557     -3.8774173875
C     -0.6851115972     -0.3659881503     -3.8774410555
C     -1.8989355091     2.8372067176     -1.6166395652
C     -3.0401652421     2.2088098547     -0.9607885415
C     -3.2851414381     0.9292432193     -1.616636726
C     -1.6212940323     2.1076709064     -2.8058814894
C     -2.5055381046     0.8906255289     -2.8058980244


