54

 C     1.2262502995     0.2223057176     3.8422255366
C     2.3473656741     0.0122660171     3.0331880513
C     2.3527824243     -1.3977896787     2.6045572642
C     0.3940158661     -0.9912611946     3.7037003993
C     1.0863962809     -1.9667315446     2.8972001521
C     -0.9360741303     -0.6048306179     3.4348857886
C     0.4096584735     1.3236911243     3.5851579691
C     -0.9922053637     0.8408777352     3.4598861155
C     0.6605154751     2.1914434484     2.4986317629
C     2.5731948704     0.7860388964     1.8626363119
C     1.7158317423     1.8895884592     1.5375942872
C     2.9141474943     -1.4906827534     1.3225549304
C     3.0171875036     -0.1207879351     0.800251694
C     2.4431118142     -2.4992295129     0.4669183529
C     0.3696955286     -2.6639123589     1.8291644579
C     1.1046916154     -3.0435958583     0.6761672664
C     -1.6334869067     -1.2572064064     2.3795735181
C     -1.0069838652     -2.3220959949     1.6170745542
C     -2.5005920713     -0.5129120488     1.5141038093
C     -1.6419116562     1.561072134     2.4706948837
C     -0.6586479142     2.5419555173     1.9798651043
C     -2.5009314546     0.9141928663     1.4818779954
C     -0.7883654643     3.0320057773     0.7321180279
C     1.5076494586     2.2048005529     0.1233436207
C     0.3721370285     3.0423327477     -0.1783446386
C     2.8024715368     0.1487229063     -0.5682530062
C     2.0231545232     1.3495342631     -0.9493081613
C     2.6301429618     -2.3154850372     -0.9114289444
C     2.8103904007     -1.0097176604     -1.4464737119
C     0.4813441843     -3.1723816628     -0.6467011024
C     1.4847869589     -2.8965479912     -1.614855735
C     -1.579327605     -2.3168105433     0.2926296775
C     -2.5741133341     -1.2584834804     0.2679826244
C     -0.8570723206     -2.6966325056     -0.8784602702
C     -2.9205772347     -0.6407070365     -0.8996648116
C     -2.7681232457     1.6033549759     0.2202478131
C     -1.9939528032     2.7883943602     -0.0716454724
C     -3.1733710355     0.8084150717     -0.9266150917
C     -0.1531150285     3.1516619352     -1.4548853248
C     -1.6288252931     3.1122289246     -1.3939540774
C     1.3660828087     1.3671882064     -2.2599366768
C     0.2824131449     2.2900370409     -2.512143378
C     2.0829128667     -0.9675112667     -2.6926726363
C     1.216964391     -2.1299365334     -2.741968309
C     1.3285993925     0.1487076243     -3.0498251543
C     -1.1822920377     -1.999061966     -2.1475897808
C     -2.2846655064     -1.0663862468     -2.1501994498
C     -0.1079707465     -1.6888794517     -3.0543813571
C     0.0281284027     -0.3406502311     -3.5628453277
C     -2.8684546298     1.2197390777     -2.2393803555
C     -2.059717721     2.344419523     -2.4856609449
C     -0.8836706179     1.8931542011     -3.2355859791
C     -2.2739953387     0.0713095645     -2.9721288134
C     -1.0635797566     0.510788839     -3.5893234585


