54

 C     1.02795637     -0.1703854515     3.9883509823
C     2.1869263906     -0.3137255521     3.2438257365
C     2.1507746883     -1.5978147634     2.529887179
C     0.2303072776     -1.399327245     3.8131985459
C     0.9275681594     -2.2695655037     2.8758606699
C     -1.0662777115     -1.0056751322     3.5271340436
C     0.1525041593     0.9808480343     3.758404054
C     -1.1611187289     0.4596882585     3.5039502741
C     0.6123741866     2.0297862966     2.9718060689
C     2.6324505914     0.700915518     2.3303625497
C     1.9497835077     1.9456706431     2.3555383814
C     2.5331957874     -1.3641921073     1.1993923489
C     2.9021890547     0.0628748489     1.0612264687
C     1.8754409096     -2.0422848606     0.1211287011
C     0.2154886706     -2.8633725422     1.8391802058
C     0.7841164086     -2.895828825     0.5002503856
C     -1.7943346606     -1.542844847     2.4050493504
C     -1.2133982058     -2.5881255769     1.6628147951
C     -1.8609448826     0.8053179312     2.3305859996
C     -2.3616085155     -0.4266012465     1.6942696504
C     -0.2657141792     2.6100221002     1.9458778513
C     -1.4461871751     1.9120523696     1.5072322548
C     1.9111486921     2.6665992916     1.1581820506
C     0.5655090252     3.217153702     0.9624676744
C     2.7205818801     0.7318573177     -0.1735990563
C     2.3390629702     2.123334387     -0.0777469437
C     1.902220754     -1.445390244     -1.2287966565
C     2.331530034     -0.0446215288     -1.3815779371
C     1.031756683     -1.9844425041     -2.2087219652
C     -0.2894174165     -3.0623659005     -0.4231397796
C     -1.5309277621     -2.6891865813     0.2818196012
C     -0.1018367955     -2.794884262     -1.7617310288
C     -2.6355060418     -0.4740763901     0.317051549
C     -2.3748260826     -1.7529206134     -0.3667447869
C     -1.8218506299     1.9141232538     0.086096016
C     -2.5770180146     0.7770253605     -0.4544850716
C     0.2494441385     3.1894572452     -0.3839945101
C     1.4524564245     2.6548418512     -1.0775077657
C     -1.0222340036     2.7100094275     -0.8418968068
C     1.8409041331     0.6680447429     -2.5011659623
C     1.3634939078     2.0482125273     -2.3030482075
C     0.5802895182     -1.2514183364     -3.3860083096
C     0.9865487084     0.082606898     -3.5280397744
C     -1.2304550881     -2.4058318354     -2.5255750925
C     -2.3539739427     -1.7795124139     -1.80875228
C     -0.8229102755     -1.6039228548     -3.6246364524
C     -2.7129469748     0.6577874425     -1.8726458414
C     -2.6742603834     -0.6359937803     -2.5180635282
C     -1.7813635734     -0.5586491264     -3.7286071218
C     -1.0862081609     2.4445629015     -2.2510932444
C     0.1504907497     2.1912018328     -3.0188627053
C     -0.0168241497     1.0893298905     -3.8997852496
C     -2.013125109     1.5402222047     -2.7478284136
C     -1.3912453076     0.7494137474     -3.8768889069


