54

 C     1.5167270992     0.1269980244     3.9888352244
C     0.7141731516     -1.0623969365     3.7597076234
C     1.4622662437     -1.9418759158     2.9817363665
C     2.6575053685     0.0593391814     3.0469914919
C     2.6800453007     -1.2176711022     2.5082121004
C     2.6248487174     1.1902348174     2.135245805
C     0.7476208417     1.1887873986     3.5452336784
C     1.4953262986     1.9901417726     2.5815877456
C     -0.6041697054     -0.6712463358     3.2538729327
C     -0.6119341646     0.756489217     3.1664265751
C     -1.2717102526     -1.4312147855     2.2537513542
C     0.891582846     -2.6005867791     1.8775088608
C     -0.5195759855     -2.5252937784     1.6422529495
C     2.7845116283     -1.426707128     1.1110879014
C     1.7780062708     -2.4050238831     0.7398708667
C     2.8584996527     1.0411821746     0.7276462575
C     3.0275742487     -0.3274288494     0.2161429825
C     2.2691969837     2.0611428602     -0.1794330506
C     0.7773132087     2.749826563     1.7034640955
C     1.2870639912     2.9704202085     0.3523739518
C     -1.3215717121     1.4504932759     2.1521481153
C     -0.676192357     2.6294313993     1.6261177593
C     -2.2988671789     -0.7466711982     1.4447395371
C     -2.2579512067     0.7083105055     1.3026837946
C     -2.8947894385     -1.5150761166     0.3924544677
C     -0.9376846798     -2.9827563157     0.362449903
C     -2.1962862308     -2.6766415876     -0.0960093327
C     1.3196265848     -2.5340388394     -0.6078835497
C     -0.0200858852     -2.9779627405     -0.8112348812
C     2.7470425604     -0.5823436065     -1.1615334295
C     1.8954569934     -1.6920985661     -1.5863542304
C     2.1360255334     1.7611329962     -1.5754978574
C     2.497775993     0.4714250101     -2.0518171131
C     0.9769481775     2.1869495048     -2.3716999866
C     0.1929127071     3.3946893061     -0.4291277677
C     -1.0083781995     3.0820565019     0.3400516685
C     -0.0202970179     2.9349039065     -1.7471523001
C     -2.6765944135     1.3043985505     0.0214266872
C     -1.9649194784     2.4461219217     -0.4700216707
C     -1.414016727     2.4668798291     -1.8430053393
C     -3.4529711653     -0.8941532586     -0.7617498584
C     -3.2544797724     0.4663396495     -0.9975690304
C     -2.1472699707     -2.6089253982     -1.5789422195
C     -0.7604162172     -2.6596750411     -1.9905640802
C     -2.9907814861     -1.6226175776     -1.9921956368
C     1.1259708314     -1.285322907     -2.7533273592
C     1.5414301919     0.0383165677     -3.0518719564
C     0.5966328897     1.0718358248     -3.2506768985
C     -0.2461297162     -1.680190314     -2.9313901863
C     -1.7753667533     1.5037549981     -2.7629431351
C     -2.8270130352     0.6119731285     -2.4010199916
C     -2.5374451241     -0.6628846046     -2.9408274164
C     -0.7464149998     0.7274276244     -3.4669997544
C     -1.1687714405     -0.6601991929     -3.4231726636


