54

 C     1.534621298     0.0869018761     4.0564060464
C     0.731485281     -1.1308927028     3.9575982476
C     1.4292095051     -2.026080316     3.1599132747
C     2.6044395897     -0.0153725742     3.094626473
C     2.6322620642     -1.3407786424     2.6224304648
C     2.4904707041     1.0838326222     2.1320725632
C     0.7092233848     1.1459513814     3.6492182302
C     1.3803541817     1.9011303478     2.6093861202
C     -0.6150040128     -0.7485753669     3.5278570849
C     -0.6446571477     0.6946497608     3.3870188376
C     -1.2838060679     -1.5358506845     2.5721832143
C     0.8005358952     -2.7273964897     2.0670736477
C     -0.5789707995     -2.6000844131     1.8652332691
C     2.6640569855     -1.5987011397     1.2432012755
C     1.6654402969     -2.6211282221     0.9141093613
C     2.6356388248     0.8753149037     0.7385684953
C     2.8513582535     -0.5136142299     0.2920480269
C     1.9576427594     1.8060575796     -0.2046494003
C     0.6026527344     2.5794990815     1.7131092421
C     1.0160269148     2.7139156741     0.3398384114
C     -1.4291506563     1.3269548278     2.3715824841
C     -0.8583987077     2.4698706242     1.7213304325
C     -2.1800271361     -0.9266487728     1.6271188757
C     -2.3381855309     0.4977010405     1.5578674574
C     -1.1057713284     -2.6588680428     0.5207192036
C     -2.1885476031     -1.7215184679     0.4147713466
C     1.1822012374     -2.7748757727     -0.3968502515
C     -0.2761804616     -2.9047346093     -0.6133723285
C     2.6010703823     -0.8507047278     -1.0371079516
C     1.9458241611     -2.0951894089     -1.4032421388
C     1.8067852981     1.4648250195     -1.6281202319
C     2.2501857864     0.1500381859     -2.0554557473
C     0.7773575412     2.0683513798     -2.4045794709
C     -0.143567456     3.1378939942     -0.4075293682
C     -1.3204563232     2.9101173211     0.4527804766
C     -0.2085171384     2.9306903949     -1.7745103616
C     -2.8550414254     1.027609599     0.347539537
C     -2.4615298614     2.3256409305     -0.1314654553
C     -2.6036347718     -1.1895807214     -0.8378393488
C     -3.1028278542     0.1746787426     -0.8371465561
C     -0.8126604683     -2.5445557941     -1.8919933199
C     -1.9783186107     -1.6846660218     -2.0115009176
C     1.4027479284     -1.9069159603     -2.6862974849
C     1.6539326208     -0.5159198523     -3.1303680813
C     0.0707118314     -2.1915086936     -2.9577442761
C     0.0741562598     1.3129208552     -3.4681760128
C     -1.7945688103     -0.8001014272     -3.1831745288
C     0.4743317238     -0.019554707     -3.7612105042
C     -0.5108121808     -1.061532456     -3.701816609
C     -1.4963897104     2.631544655     -2.3604392766
C     -2.5716081579     2.3024344517     -1.5630602815
C     -3.0180401609     0.9607226494     -1.9890670494
C     -1.306557751     1.586969347     -3.3788682392
C     -2.2614933307     0.5391329718     -3.1400169077


