54

 C     1.5115655869     0.1343018821     3.9647184821
C     0.6832442835     -1.0458636821     3.7569655496
C     1.4069861116     -1.9513412097     2.990076425
C     2.6406413897     0.0226015866     3.0264623714
C     2.6496168897     -1.2689377756     2.5162410107
C     2.6407991204     1.1368174563     2.0882991115
C     0.756597986     1.1944673783     3.4799697921
C     1.5013818948     1.9406015663     2.4722824519
C     -0.6391563411     -0.6477725765     3.2666210515
C     -0.6095679874     0.7778119557     3.14460275
C     -1.3416385495     -1.4212566888     2.291961985
C     0.8156232951     -2.5955540772     1.8830481799
C     -0.6013688134     -2.5042222392     1.6521799635
C     2.7533672406     -1.4944919823     1.1241447434
C     1.7071391841     -2.4426410348     0.7537670346
C     2.9215334344     0.9534510334     0.6969785992
C     3.0592995523     -0.4250120294     0.2190039293
C     2.3864349912     1.9598146475     -0.2560507273
C     0.7797893214     2.6323465015     1.5239254429
C     1.3022609407     2.7888242416     0.1856914789
C     -1.3369439982     1.448989824     2.1260376621
C     -0.6628909613     2.5241125705     1.4491111906
C     -2.4171246173     -0.7528079573     1.5361136521
C     -2.3863068402     0.7136489115     1.4258559839
C     -3.0213393688     -1.502816916     0.4699032491
C     -1.0283724385     -2.9354743345     0.3641564812
C     -2.2936885198     -2.6097052036     -0.0876502592
C     1.2455524153     -2.5598744272     -0.5899636404
C     -0.1065198456     -2.9331694936     -0.7946218889
C     2.8006356234     -0.6967479465     -1.1669883042
C     1.8696275806     -1.7675489678     -1.5792732873
C     2.415411807     1.673879751     -1.6630570924
C     2.7223800081     0.3261637672     -2.1038963398
C     1.3909540672     2.153864615     -2.5315201207
C     0.1868649268     3.1148788938     -0.6721800776
C     -1.0185700038     2.8876656029     0.1120657259
C     0.223326529     2.7539717988     -2.0256728569
C     -2.9156509942     1.3277304382     0.2366375608
C     -2.1601908796     2.3415870357     -0.4642787462
C     -3.6196353241     -0.8427266248     -0.656443241
C     -3.5315287244     0.5193153128     -0.7678797944
C     -2.2187720144     -2.4349553625     -1.5540644147
C     -0.8299583944     -2.4973572802     -1.9499580251
C     -3.0141956881     -1.39070194     -1.9102064585
C     1.140873868     -1.3108665929     -2.7289157288
C     1.7487799132     -0.0639170742     -3.1173887835
C     0.9439673415     1.0268738895     -3.3637855013
C     -0.2776190424     -1.5152123558     -2.8454508986
C     -0.9520476848     2.0871812276     -2.6243930144
C     -2.1481261537     2.0122652462     -1.9034470255
C     -2.9574114121     0.8786854841     -2.0885851952
C     -2.4880763376     -0.3014257388     -2.7205087841
C     -0.4901580597     0.930904114     -3.362391199
C     -1.1377963082     -0.3503552509     -3.2282504631


