54

 C     1.5655448262     -0.0340682049     3.734063022
C     0.7757037045     -1.2148841627     3.7429959717
C     1.3982462496     -2.2229661878     2.9059166726
C     2.5236822563     -0.1704191866     2.7190708365
C     2.414736506     -1.5093245704     2.1309014825
C     2.4683868759     0.9837293494     1.8735418508
C     0.7166364862     1.0890273659     3.3565023954
C     1.3358428209     1.8264166997     2.3346178401
C     -0.5800881198     -0.8349915363     3.4620433599
C     -0.6083707825     0.6206190225     3.1413082933
C     -1.392612253     -1.7344928614     2.7532028113
C     0.5636676099     -3.1598204346     2.2720602149
C     -0.8723300286     -2.9873345175     2.3432094429
C     0.8536475452     -3.5095883559     0.9177410626
C     2.5030290054     -1.6578935007     0.720148725
C     1.7401879984     -2.7491422639     0.1405669821
C     2.7299881208     0.8758388261     0.4969701681
C     2.7519102327     -0.4652317522     -0.1272288518
C     2.3350373455     2.003325548     -0.2834531041
C     0.5539357059     2.5164793467     1.3893352755
C     1.2801609087     2.9059278081     0.2170894326
C     -1.3872853575     1.127759779     2.0613410534
C     -0.8675212259     2.2372075706     1.2551956237
C     -2.258532944     -1.2087346444     1.6939063378
C     -2.3255788381     0.1901636688     1.4129983804
C     -1.4378978991     -3.2585713405     1.0286829968
C     -0.4171851771     -3.6274839045     0.1587059883
C     -2.3032262074     -2.190491948     0.6346846329
C     1.1263640867     -2.5902352607     -1.1820182949
C     -0.2737983199     -3.0054460826     -1.1059852644
C     2.3779176991     -0.5000791417     -1.4863721648
C     1.473157072     -1.5413990593     -1.9773917645
C     2.2115869313     1.9537666343     -1.6983251199
C     2.1184965568     0.6762563842     -2.2865195867
C     0.6279721574     3.4804160185     -0.8572453332
C     1.2573053275     2.9788488206     -2.0918442792
C     -1.5427888968     2.6507906456     0.0043823735
C     -0.7968437477     3.3965658485     -0.9970043472
C     -2.8438852464     0.5254812986     0.1509679504
C     -2.6107092773     1.8200814514     -0.4837475304
C     -2.3374276075     -1.7532694909     -0.7242382504
C     -1.2789504986     -2.1543106593     -1.6562790094
C     -2.9180584908     -0.4672237521     -0.8938203632
C     0.5147878256     -0.9325070277     -2.8745720774
C     1.0110791679     0.3891991101     -3.1946655173
C     -0.8774871035     -1.2043177016     -2.7080093321
C     0.2710090424     2.747787461     -3.0077661283
C     -1.0267915577     3.1667276332     -2.4159632889
C     0.107707617     1.4140010281     -3.5920456428
C     -2.8464359267     1.6558130958     -1.8867919542
C     -2.7987419947     0.2213774016     -2.1141717724
C     -1.7732245801     -0.122119602     -3.0535621066
C     -1.9623614205     2.2346902935     -2.8103892225
C     -1.2695941706     1.1180490606     -3.5427408703


