54

 C     1.4253730954     0.0542075634     4.1084274313
C     0.6423574567     -1.1516225064     3.9726434183
C     1.3463007007     -2.0233468965     3.145396597
C     2.5493898925     -0.0199157755     3.138800694
C     2.5593236457     -1.3457405719     2.6302811606
C     2.4835956678     1.0809618222     2.2539926923
C     0.6333340329     1.1313877795     3.748890869
C     1.3578844382     1.9053889364     2.7416663944
C     -0.7082225299     -0.7558552836     3.5519033275
C     -0.7325539598     0.6898625773     3.4336142578
C     -1.3623031264     -1.4981530662     2.5712789202
C     0.7310935495     -2.7063944313     2.0433815508
C     -0.6438869167     -2.5558718692     1.8241301731
C     2.6356584434     -1.5734080334     1.2588958579
C     1.5839519584     -2.5626343427     0.8887555493
C     2.6499305926     0.9042437371     0.8264748541
C     2.8508021494     -0.4627141351     0.3643307377
C     2.0210248118     1.8562139525     -0.1051210168
C     0.6365934972     2.6313676628     1.8627009592
C     1.0990427658     2.7985032085     0.4753930763
C     -1.4633353405     1.3397624869     2.4048414334
C     -0.8396342012     2.5256334034     1.8352837779
C     -2.2476725837     -0.8592550688     1.6373059561
C     -2.3369437776     0.5608652231     1.5126663342
C     -1.1770778996     -2.6174513138     0.4966324481
C     -2.3038234988     -1.703577793     0.4529487613
C     1.0849448731     -2.6409514731     -0.4140993664
C     -0.3554506627     -2.7386639605     -0.6614448096
C     2.6217036341     -0.7340263523     -0.9933601026
C     1.8859557459     -1.9619640198     -1.4129867913
C     1.8451238886     1.5430665441     -1.5270666818
C     2.3586113132     0.2674599119     -1.9553370589
C     0.7055379019     2.093214032     -2.3043838542
C     -0.0065352665     3.2213770172     -0.2524188511
C     -1.2133469939     2.9527265248     0.5805722989
C     -0.2727088142     2.841082084     -1.5723088061
C     -2.7484329267     1.0926384084     0.1964335966
C     -2.179060688     2.3315588679     -0.2430844196
C     -1.6946058997     2.4709630862     -1.6172283323
C     -2.7708636629     -1.2286957969     -0.7355617926
C     -3.1233117875     0.1744100226     -0.8495055715
C     -0.9065120787     -2.3448999732     -1.9826328128
C     -2.1846350339     -1.6856020076     -2.0016356714
C     1.4248773454     -1.789090753     -2.6890243198
C     1.7968502005     -0.418890445     -3.099970371
C     0.0236192381     -1.9853311442     -3.0383365523
C     0.1749824204     1.3628700064     -3.4451807307
C     0.7727866069     0.0972555609     -3.8257951517
C     -0.2994178918     -0.9404574789     -3.9591025528
C     -2.1574428621     1.6269919945     -2.6203275681
C     -2.9506783699     0.4942751149     -2.216520476
C     -2.500170119     -0.6755350789     -2.9634565574
C     -1.2206479487     1.1848931529     -3.6083372874
C     -1.5013750552     -0.253131161     -3.8634156113


