54

 C     1.2576793062     -0.0244090884     3.4642110721
C     2.4077918466     -0.305498167     2.7735040308
C     2.3403222671     -1.7018405672     2.31733484
C     0.4189427331     -1.2322525537     3.4712314075
C     1.0436992133     -2.2244001032     2.6431248193
C     -0.8918579835     -0.8208992605     3.2255611715
C     0.4481710288     1.1158737875     3.1100872531
C     -0.9130810359     0.649310747     3.0236182323
C     0.9500527665     2.098245395     2.2040859775
C     2.8310678686     0.5334904481     1.6790231418
C     2.1982077301     1.7931947112     1.4544984515
C     2.8090160626     -1.725398421     1.0029773295
C     3.1528540406     -0.3444095942     0.5817944069
C     2.1938775076     -2.5855054112     0.066203636
C     0.2564772276     -2.8832943685     1.6004466474
C     0.8964585934     -3.1323260138     0.3432034366
C     -1.7289880069     -1.626750868     2.4221062364
C     -1.1535136916     -2.6313094403     1.5743277299
C     -2.7857666469     -0.9948715689     1.6938855352
C     -1.8370027344     1.2406124133     2.109370624
C     -2.8038655933     0.3831718304     1.4467293234
C     -0.0620932361     2.8707772079     1.5363362568
C     -1.4070615967     2.3971070891     1.4198162046
C     0.2291651511     3.5441355817     0.3069757783
C     2.3124095249     2.2904456312     0.1103130994
C     1.3857163577     3.261473077     -0.3875986431
C     2.9602462506     0.0681580561     -0.7716488543
C     2.5996937117     1.417850725     -0.9864671393
C     2.2267541107     -2.2199393246     -1.3164169026
C     2.4993669748     -0.9129457792     -1.7381621511
C     0.137010667     -3.11365084     -0.9360710766
C     0.9975379455     -2.6493704706     -1.9393054754
C     -1.9189663268     -2.6111666905     0.2986595981
C     -2.9586853487     -1.6824632827     0.4366308496
C     -1.261995251     -2.7646827765     -0.9762654199
C     -3.1640290545     0.5944890387     0.0283109029
C     -3.2584060937     -0.7211862735     -0.5795816219
C     -1.8861289489     2.6878643856     0.0401271766
C     -0.9124957956     3.4458934197     -0.6047046164
C     -2.656136435     1.7014418273     -0.6957298729
C     1.0468357894     2.9670303534     -1.7813941588
C     1.7285500758     1.8044321082     -2.1306923398
C     -0.400013049     3.0487403556     -1.906779876
C     1.5196160828     -0.5502004295     -2.784483488
C     0.591319247     -1.6620650314     -2.8915600822
C     1.0810440048     0.7880697911     -2.940118556
C     -1.7237254993     -1.963687571     -2.0710743618
C     -2.7446394317     -0.9329520123     -1.861129438
C     -0.774897751     -1.4143599472     -3.0440710419
C     -2.3035426595     1.5018556735     -2.0945380049
C     -1.0731986854     2.0923198413     -2.6384930143
C     -0.3143716873     1.015699507     -3.2891480285
C     -2.4002664544     0.2085639036     -2.6446588439
C     -1.1851550991     -0.0884110506     -3.3744021815


