54

 C     1.3618418357     -0.0068399439     4.0192835249
C     0.5950169884     -1.2024072725     3.7549604505
C     1.3440060262     -2.0858625199     2.9488188991
C     2.5094721498     -0.0692926491     3.1323933241
C     2.5609512539     -1.33409145     2.5260658614
C     2.5212742068     1.0591045773     2.2394514127
C     0.5763135497     1.05064755     3.5065142667
C     1.2881222213     1.7826595463     2.4946209334
C     -0.720478145     -0.8612046266     3.2823790644
C     -0.7248728629     0.5874140703     3.1038161578
C     -1.3751764067     -1.658299617     2.31062665
C     0.7869005997     -2.6915027631     1.806539428
C     -0.6234496103     -2.619734273     1.5140258267
C     2.7216178652     -1.4927997387     1.1249139067
C     1.7317491104     -2.477589632     0.7088687417
C     2.9632203943     0.9305642699     0.8860156257
C     3.0198788768     -0.3881768082     0.2613541147
C     2.6381936393     2.0489261976     0.0709797216
C     0.6111299003     2.4871019655     1.4498650723
C     1.4691142605     2.8879301365     0.3974212935
C     -1.438508531     1.2172104024     2.0279832094
C     -0.8006845358     2.2388981369     1.1812311037
C     -2.490314495     -1.0039317312     1.6880967981
C     -2.484834019     0.4512416363     1.4947994342
C     -3.1050697669     -1.5576187455     0.579941574
C     -1.0582325116     -2.8719472401     0.1320951191
C     -2.4021745435     -2.4955943575     -0.2605740937
C     1.2993637677     -2.5214418964     -0.5919967888
C     -0.0719052214     -2.8526580037     -0.903242333
C     2.6384123003     -0.4914404218     -1.1619226725
C     1.7900184403     -1.5699548522     -1.5578568408
C     2.7328701798     1.9832351981     -1.3375093532
C     2.5513501439     0.6921559288     -1.9581571784
C     0.922963604     3.3275016838     -0.8272078633
C     1.8160536942     2.9227969782     -1.9169259914
C     -1.310875332     2.4554185437     -0.1649134427
C     -0.4267657805     3.0343670477     -1.1400253733
C     -3.1070536457     0.745016029     0.2189679577
C     -3.6659261168     -0.4865512907     -0.2541068403
C     -2.4586776899     1.6587737814     -0.6729941055
C     -2.6985308833     -2.1275461926     -1.6038291286
C     -3.5080588685     -0.8719738099     -1.5754580291
C     -0.3440062692     -2.279406828     -2.1988495549
C     0.7636046661     -1.4293015172     -2.5674821928
C     -1.6706195055     -1.9361704942     -2.5569431455
C     1.5017848527     0.8528306968     -2.9547786025
C     1.0325626032     2.2339708498     -2.8286466239
C     -0.374008395     2.4615658285     -2.5069287744
C     0.5565568442     -0.1637374655     -3.2116506785
C     -2.4796009745     1.2889437318     -2.0758093515
C     -2.9788743654     0.0349906731     -2.4984781454
C     -1.8713140821     -0.6494299497     -3.2020149631
C     -1.279656544     1.5279387031     -2.8858455093
C     -0.8346748733     0.2353019374     -3.4478819058


