54

 C     1.0382553591     -0.1411919613     3.9651944936
C     2.265753122     -0.3551846491     3.4041391915
C     2.2355005988     -1.6828522544     2.7323799594
C     0.1793689558     -1.3388255401     3.6740335174
C     0.856985977     -2.1866252196     2.7495259558
C     -1.075876759     -0.8604085055     3.3748597886
C     0.2642668124     1.0532283173     3.6566612293
C     -1.0705968402     0.6243126391     3.4449747877
C     0.8238806033     1.9841871515     2.7199551364
C     2.8569912109     0.5855829052     2.4519454631
C     2.1377045672     1.7283465486     2.1107844538
C     2.9735778972     -1.6072016928     1.5891601652
C     3.4331821699     -0.2161417702     1.387992199
C     2.4503752706     -2.1029519378     0.3534037346
C     0.2361647349     -2.5566200674     1.5153574931
C     1.1240001183     -2.6926167453     0.3285258222
C     -1.7562697888     -1.2471429459     2.1943162358
C     -1.157192409     -2.1370405207     1.2591973671
C     -1.8595080796     1.1005504707     2.3940526185
C     -2.4385110229     -0.0555315826     1.6940097844
C     -0.00536468     2.5703256815     1.7226992612
C     -1.3840506915     2.1930609909     1.5871032623
C     2.0560303208     2.1384937793     0.7077083743
C     0.7940352968     2.7665378808     0.4950995149
C     3.2356416701     0.0834096058     0.0503637294
C     2.7962074865     -1.1518058107     -0.6486699831
C     2.611456461     1.3347567085     -0.3443846156
C     2.1158256669     -1.1064367038     -1.8823102807
C     0.5355289092     -2.7702388924     -0.9263237052
C     1.152161911     -2.1509013576     -2.1087007573
C     -1.7162628719     -2.1298013338     -0.1000106522
C     -0.912234883     -2.715364488     -1.1178092048
C     -2.9096849462     0.041023004     0.3918413694
C     -2.7135189626     -1.1220448314     -0.5159625987
C     -1.9959308808     2.3401492025     0.3258288466
C     -2.9343229661     1.3843291384     -0.1581729635
C     0.1989844836     2.838514054     -0.7893811804
C     -1.2525898827     2.8612567556     -0.8503506191
C     1.9985877461     1.3802747969     -1.6216775665
C     1.856111482     0.1778790349     -2.469313232
C     0.8812795463     2.2231671116     -1.8926547294
C     0.7635263668     0.3729804712     -3.360334829
C     0.1502766682     1.6691156855     -3.0337839416
C     0.1600165846     -1.9764485548     -3.0776363167
C     -1.1303472886     -2.4156504709     -2.4848427021
C     -0.0545810754     -0.7418618875     -3.7412516353
C     -2.9350468471     -0.8991218022     -1.9112108807
C     -2.133704012     -1.563198558     -2.8856313879
C     -1.4961386299     -0.5387256283     -3.7804792522
C     -3.0056879101     1.5595205063     -1.5762060011
C     -1.9174399726     2.4668925287     -1.9994604167
C     -1.2313281074     1.8283919712     -3.1077573663
C     -3.0465362054     0.4785322176     -2.4051979136
C     -2.0489523043     0.6771165747     -3.491599033


