54

 C     1.5786012147     0.0967451625     3.7622757118
C     0.8088169401     -1.0650879966     3.6580687622
C     1.3655235128     -1.9029633859     2.599750386
C     2.5861956432     0.0847917827     2.7094082407
C     2.5130554264     -1.1932888136     2.0542489909
C     2.523592235     1.2776893742     1.9604807747
C     0.7522876425     1.2461505775     3.5329241075
C     1.4078748622     2.0644800947     2.5327336167
C     -0.5751445442     -0.630188709     3.5130421218
C     -0.5948501477     0.8263889752     3.339736275
C     -1.4021688477     -1.3875604531     2.7397667613
C     0.5204131241     -2.6731580259     1.7491286453
C     -0.8928980641     -2.5924785724     2.0514195415
C     0.9123938207     -2.8815751251     0.3288245381
C     2.7495774973     -1.2323307022     0.6865318135
C     2.0255584777     -2.1401215646     -0.171052621
C     2.7258846616     1.2578597926     0.5265584896
C     2.9994640084     -0.0117971773     -0.0520804135
C     2.0508481663     2.278281813     -0.3070816745
C     0.6195609493     2.8024100076     1.6972148389
C     1.0328332092     3.0861281677     0.3167562187
C     -1.4069684811     1.4329975007     2.3097681691
C     -0.8353383602     2.5897860746     1.6891296689
C     -2.4095463254     -0.7741848398     1.8621435557
C     -2.326484876     0.6194044621     1.5092648025
C     -1.8288258023     -2.8858627057     1.0595186447
C     -2.7878734893     -1.7465248431     0.9290314165
C     -0.1025401346     -3.2109626111     -0.6412932866
C     -1.4676087563     -3.2752851729     -0.2191111132
C     -0.1049061608     -2.6290980797     -1.9686756864
C     2.0336636488     -1.584930932     -1.5069942261
C     2.6685370014     -0.2864025023     -1.4297347601
C     0.9654856952     -1.8203404548     -2.4344646331
C     1.8923940953     2.0382097173     -1.7046781848
C     2.2643923005     0.743757632     -2.2778574924
C     0.7218161868     2.5063885144     -2.4459500422
C     -0.1358902183     3.4170643344     -0.3942222667
C     -1.2701584632     2.9760797641     0.4182826158
C     -0.3657451572     3.0500853921     -1.731704287
C     -2.6429836611     0.9675105951     0.1133884652
C     -2.1341635138     2.205534623     -0.3927040263
C     -1.6776328538     2.3661760711     -1.7758075481
C     -2.9601000122     -1.46845605     -0.4373107729
C     -2.2818337493     -2.5226712471     -1.1722487595
C     -1.4883922351     -2.2162133675     -2.2639802333
C     -2.8959620285     -0.093026022     -0.8853240644
C     -1.8829297585     1.3462361362     -2.6930412518
C     -1.72853664     -0.9822568257     -2.9299750633
C     -2.4565060254     0.0978796786     -2.2245218764
C     0.6786457409     -0.7741293628     -3.4068632527
C     1.390199581     0.4372409572     -3.3633510567
C     0.4326381533     1.5454780758     -3.4642070263
C     -0.7186717046     -0.4117666105     -3.6964774901
C     -0.8455938042     1.0319068865     -3.6586840332


