54

 C     1.6846592569     -0.2292614708     4.3914636754
C     0.7788452046     -1.3624989761     4.5416691809
C     1.2236630359     -2.3815538212     3.7230353907
C     2.6379593362     -0.5936564813     3.3074475608
C     2.3881495794     -1.92500193     2.9238272679
C     2.6078743818     0.4100249787     2.2758295364
C     0.9189515673     0.7816230308     3.8192795523
C     1.5470040014     1.3450819048     2.6219799328
C     -0.5585116992     -0.9950465335     4.040248952
C     -0.50090927     0.3620211871     3.6722032742
C     0.1873408767     -2.7857769402     2.7863235899
C     -0.9788652975     -1.9455029785     3.0012993663
C     2.1137402905     -2.2296986721     1.5590455409
C     0.7336601343     -2.8019391876     1.4979069216
C     2.6885064388     0.0605679015     0.9117042879
C     2.4378310369     -1.3239721901     0.5318725302
C     2.2987804825     1.0737638678     -0.0507332677
C     0.7811568747     1.9817862317     1.6450005165
C     1.3241796799     2.0678619873     0.2900592244
C     -1.2476611996     0.8585338758     2.5829926169
C     -0.688375859     1.9530159579     1.7811055517
C     -1.6980780667     -1.4835502939     1.8962338106
C     -2.1120789482     -0.0787662953     1.8777062855
C     -0.0900555704     -2.5498515893     0.3591492161
C     -1.4009260382     -2.0269394192     0.552014354
C     1.8836532765     -1.5812099953     -0.7955387076
C     0.6036669668     -2.2904641515     -0.9060178776
C     2.4608131907     0.7153559941     -1.4245013017
C     2.2169723158     -0.6930403806     -1.8161135759
C     2.0074174706     1.5305234509     -2.4475076992
C     0.539619593     2.6786094007     -0.793777255
C     0.9739132126     2.5024539147     -2.1739586431
C     -1.436251828     2.3972503175     0.6977063064
C     -0.8447622215     2.8667710687     -0.5661093127
C     -2.7970271929     0.3922778624     0.7531338405
C     -2.6475023896     1.7286921702     0.3523294553
C     -2.1226223118     -1.5361650097     -0.6187285529
C     -2.9494620263     -0.3971622909     -0.4867345344
C     -0.1520395179     -2.1296448762     -2.0619103688
C     -1.5853345988     -1.8217857341     -1.9355244963
C     1.5453051123     -0.6744442461     -3.0962476728
C     1.5504182141     0.6880671929     -3.5651537073
C     0.3555830644     -1.4373780513     -3.2405009592
C     0.0367096497     2.4194097334     -3.2398107319
C     0.407284243     1.2711664828     -4.1057972145
C     -1.8024589536     2.6117304443     -1.6332283585
C     -2.8389162771     1.8232026795     -1.0761259911
C     -3.1166467321     0.5209239188     -1.5964056766
C     -1.3577131572     2.3187237899     -2.96385609
C     -1.961432413     -1.07232453     -3.0580629402
C     -0.7703832844     -0.855578186     -3.9086300409
C     -0.7610825301     0.4877089704     -4.3089198155
C     -2.6274736775     0.1897565074     -2.8906013916
C     -1.8870874262     1.1653093988     -3.6320715149


