54

 C     1.5308885502     -0.2000579284     4.0688804575
C     0.7294920303     -1.3017040847     4.0458026558
C     1.2162578145     -2.2911420108     3.0790149565
C     2.5472424271     -0.3810602797     3.0298653562
C     2.3007359745     -1.6943938612     2.371116446
C     2.4925941524     0.7295983538     2.2104064545
C     0.6934363925     0.9544101652     3.6846742084
C     1.347403259     1.6118641936     2.6545417579
C     -0.6442087888     -0.9284906196     3.6750823663
C     -0.6584458513     0.5075808111     3.4091282676
C     0.0746284214     -2.7209703784     2.3501875137
C     -1.0700824294     -1.8146704563     2.6884838769
C     0.2309904096     -3.073365928     1.0266905767
C     2.3705382532     -1.8088120954     0.9378444807
C     1.4407031232     -2.703548649     0.324801504
C     2.7957530236     0.663073797     0.7977623595
C     2.7879488623     -0.6447819245     0.1289398301
C     2.4987414964     1.8151451365     0.0677498271
C     0.6204916603     2.3284543647     1.6741609948
C     1.419243205     2.7367005846     0.5442564594
C     -1.3607134232     0.9902262957     2.277505554
C     -0.7857051319     2.099748343     1.4975989914
C     -1.9579020143     -1.3799461851     1.6508570192
C     -2.222208635     0.0427910506     1.5591705504
C     -0.8773782862     -2.9718220123     0.0979490318
C     -2.0470320071     -2.1989864273     0.4380760267
C     1.0850974806     -2.6088651176     -1.0701040134
C     -0.3348914787     -2.8969203401     -1.2199779807
C     2.5292970734     -0.6399640151     -1.2660725069
C     1.6686698182     -1.6405758606     -1.873086651
C     2.4350940393     1.8233135106     -1.3716671738
C     2.373912833     0.5861653958     -2.0300988432
C     0.8395616781     3.3326416358     -0.5419355619
C     1.5208049162     2.8647382978     -1.7594195021
C     -1.3987211399     2.5252157851     0.2225986264
C     -0.5998198272     3.2420655336     -0.750198308
C     -2.8868229877     0.5135830994     0.3903730213
C     -2.4843379331     1.7725387057     -0.279173277
C     -2.8224665869     -1.7128131974     -0.6506348711
C     -3.3568087471     -0.3782511478     -0.573353603
C     -1.0742537002     -2.3086575355     -2.2685005294
C     -2.389698568     -1.8892765078     -2.0046500063
C     0.9110191589     -1.0073695391     -2.949961633
C     1.3609659376     0.3674972825     -3.066308551
C     -0.4270068778     -1.3360904991     -3.165059508
C     0.5516476254     2.6386314581     -2.7078846165
C     -0.7720190127     2.9750674924     -2.1333799523
C     0.431915716     1.3780893383     -3.3871886672
C     -2.6932323257     1.5827159845     -1.7008874995
C     -3.2280073916     0.2679863246     -1.88362918
C     -2.6103540986     -0.6332477529     -2.735976139
C     -1.4001769432     -0.2797725896     -3.4445666556
C     -1.7091162793     2.0406256469     -2.6107822158
C     -0.9936648572     1.0550883364     -3.4590217352


