54

 C     1.6329915639     -0.063995806     3.9670608304
C     0.7956543609     -1.1751338306     4.257160874
C     1.1487658041     -2.1785699869     3.3253934293
C     2.4841696186     -0.3960067812     2.8190497212
C     2.2232628537     -1.7276297092     2.4290589315
C     2.4669632922     0.6698229044     1.8401022532
C     0.8468028623     1.0026229073     3.4932584531
C     1.46788137     1.6252145159     2.3355958793
C     -0.5590346652     -0.7812000513     3.8097691936
C     -0.5448547202     0.5870681119     3.3977712919
C     -0.0346902559     -2.7272620463     2.7072429805
C     -1.1153119665     -1.7353351958     2.9170645464
C     0.0967866564     -3.3118379031     1.4773792633
C     2.1969596635     -2.0649966638     1.0310654766
C     1.2919671995     -3.0932977684     0.6382644521
C     2.5221612435     0.4089341321     0.4651362152
C     2.5313727589     -1.008938804     0.0338039081
C     2.0412343489     1.4695074073     -0.4504023287
C     0.6956862918     2.3272557142     1.4534561232
C     1.2228169502     2.5231315529     0.098688475
C     -1.2886496173     1.0210430655     2.2733369232
C     -0.7800043263     2.2120725194     1.5846005415
C     -1.9080957285     -1.3206623248     1.7892397451
C     -2.0702229943     0.0911759509     1.4949271542
C     -1.0334937792     -3.2811189051     0.586035359
C     -1.9656071592     -2.224353933     0.6682251678
C     0.8627222593     -3.2034180319     -0.7306035009
C     -0.5687744582     -3.3693930167     -0.7644773476
C     2.26387286     -1.2610037497     -1.3166368178
C     1.4634077807     -2.4130768018     -1.7232139827
C     1.910347813     1.199517527     -1.8703200592
C     2.0102583659     -0.1793566585     -2.2769691774
C     1.1092164585     2.063588466     -2.6973742399
C     0.4712046307     3.3779722169     -0.7440711351
C     0.5134032211     3.2378724563     -2.1655816086
C     -1.5489674892     2.7401255548     0.5860148725
C     -0.9320892162     3.5888340752     -0.420313449
C     -2.5394335255     0.5209847319     0.15723403
C     -2.5145594151     1.8925830855     -0.1251496136
C     -2.2078420055     -1.7553420949     -0.7021286269
C     -1.3712257266     -2.5494700485     -1.5980948151
C     -2.504864646     -0.4180501136     -0.9888527074
C     0.6680597379     -1.9755532468     -2.8127617005
C     1.1071078025     -0.6818089398     -3.2383243053
C     -0.7675939935     -1.9177370967     -2.6968578381
C     0.0581562521     1.4640648794     -3.5526701228
C     -2.1606421328     0.1099253656     -2.339546492
C     -0.0371484991     0.1013089087     -3.6261065717
C     -1.2229597566     -0.6216374139     -3.1245780698
C     -0.8382163522     3.466547951     -2.7235765275
C     -1.6986768047     3.600240203     -1.6003427921
C     -2.5212241022     2.3908897361     -1.4839262479
C     -1.149423148     2.2140522148     -3.3016475583
C     -2.2195875362     1.5298507683     -2.5614284553


