54

 C     1.3133800662     0.0382397761     3.7280576561
C     2.412218907     -0.113851233     2.8838868459
C     2.3579976933     -1.4812317714     2.362605513
C     0.4691980218     -1.1928597975     3.6663189817
C     1.1456556028     -2.1311682069     2.8325974323
C     -0.8346485933     -0.7530279654     3.3307365632
C     0.5057828099     1.1663910681     3.6249358343
C     -0.862246674     0.685028912     3.484121137
C     0.7290561556     2.1234745283     2.579264178
C     2.5985578009     0.7594532245     1.765612945
C     1.7490369293     1.9000786812     1.5654642458
C     2.7358823075     -1.5000892238     1.022113875
C     2.9077635613     -0.0962262543     0.6289140678
C     2.1241312389     -2.443319978     0.1129741148
C     0.4142811961     -2.8858320989     1.9198443786
C     0.9791253365     -3.1925037422     0.6077439906
C     -1.572977571     -1.3652300735     2.2252179103
C     -0.9983164103     -2.5630098518     1.7044409056
C     -2.3867958329     -0.5278853963     1.3312218251
C     -1.5354823327     1.4840861517     2.5683197911
C     -0.5791943167     2.51298683     2.1421557524
C     -2.4397436635     0.919973481     1.5792137983
C     -0.7568302004     3.1282250145     0.9190552164
C     1.4887993115     2.3346163268     0.1738110399
C     0.3196913067     3.1061150748     -0.0799261773
C     2.7322548047     0.3011025249     -0.7055945043
C     2.0709793446     1.6009261174     -0.9670105601
C     2.1698829238     -2.1063250057     -1.2489494856
C     2.6190954163     -0.7821494575     -1.6603231168
C     1.0984732575     -2.5027911424     -2.1919270785
C     -0.0974350072     -3.4268808139     -0.2742965266
C     -1.3070756111     -2.9855017713     0.381971321
C     -0.111756884     -2.997266159     -1.630906947
C     -2.6248559178     -0.9827966585     -0.0518937307
C     -2.0193684378     -2.1817251404     -0.5107792047
C     -1.3205258124     -2.2511159198     -1.8339146772
C     -2.9295058179     -0.0279997091     -1.0843984531
C     -2.8086849094     1.8072896741     0.5297595798
C     -2.0001373565     2.974881292     0.2749037047
C     -3.1741551815     1.3028304517     -0.7707564482
C     -0.3265299113     3.1414882416     -1.3785301005
C     -1.7670618528     3.063458257     -1.1580742182
C     -2.5365739885     2.1177387829     -1.8021721417
C     1.4929759228     1.784882984     -2.258702512
C     0.2207782808     2.4503745773     -2.4373221424
C     2.0536146659     -0.5319195879     -2.9341423264
C     1.0319832007     -1.5560133172     -3.2142251663
C     1.5049480294     0.7033124807     -3.205859378
C     -1.3782165814     -1.1761077618     -2.7657940548
C     -2.2466938692     -0.0902713813     -2.4162504274
C     -1.9526538331     1.2514089848     -2.7991796989
C     -0.6441424656     1.5523813145     -3.2766851564
C     -0.1881779264     -0.8770142091     -3.5450298937
C     0.1542428871     0.5113688961     -3.742618477


