54

 C     1.4367246209     0.1645746412     4.1604141292
C     0.5654946554     -1.0043571243     4.0725671807
C     1.2049198001     -1.9581405946     3.2647009236
C     2.5401459587     -0.0159721299     3.2286888705
C     2.3994303056     -1.2877525475     2.6845535195
C     2.518053993     1.0754928091     2.2766428363
C     0.7087498402     1.2660437467     3.7100325626
C     1.398268777     1.9247284211     2.620392664
C     -0.7750211529     -0.5772434306     3.725649719
C     -0.6968605695     0.8844198902     3.512873953
C     -1.5057490536     -1.3289386839     2.8041244551
C     0.5241704366     -2.5893862727     2.1960880585
C     -0.8669494383     -2.4124493423     2.0686556155
C     2.4245259283     -1.5437714164     1.2706280418
C     1.3420478589     -2.4547394337     0.9713601515
C     2.8190989979     0.854988008     0.8983720137
C     2.7452358964     -0.5127634624     0.3449777714
C     2.434720301     1.905333596     0.0273925887
C     0.658447261     2.6005432781     1.5955895185
C     1.3002444307     2.7667384326     0.3498292757
C     -1.4140490462     1.4810163387     2.4988854082
C     -0.7814498185     2.4390765897     1.5727503733
C     -2.4047710465     -0.6748784618     1.8524818723
C     -2.3695577635     0.7172497648     1.7179057873
C     -1.4427223339     -2.4572402138     0.7585077258
C     -2.4877617589     -1.4576065979     0.65263677
C     0.784998781     -2.5346189333     -0.3080110613
C     -0.6695256597     -2.754339989     -0.3991388065
C     2.3612438741     -0.7209742268     -1.0520139297
C     1.4433881613     -1.8047731505     -1.3938254257
C     2.441754856     1.7109906356     -1.366140947
C     2.3855615237     0.4150975307     -1.9302576103
C     0.5674257711     2.9718825142     -0.8805068817
C     1.3678652278     2.4832006711     -1.9585524767
C     -1.474830027     2.40060967     0.3419975065
C     -2.4586809952     1.3072155709     0.4086563117
C     -0.8471230523     2.7206341322     -0.9118552151
C     -2.8345756553     -0.8966697651     -0.6067219715
C     -2.8265324429     0.5732596866     -0.7348228246
C     -1.3123635889     -2.5442051266     -1.6275873492
C     -2.4652662209     -1.6728785719     -1.7440621887
C     0.7954811297     -1.793026962     -2.6711795137
C     -0.5280640623     -2.3279262946     -2.8205053276
C     1.5297214188     0.4982377771     -3.1162137469
C     0.8308479763     1.7990814403     -3.0602489046
C     0.8511119782     -0.6225693823     -3.5449369955
C     -1.4036903208     2.14823693     -2.0936954572
C     -2.4657380928     1.142816491     -2.0189963522
C     -0.5780523128     1.8046113756     -3.2437688095
C     -2.3996860947     -1.0799776033     -3.0544397272
C     -1.2842410868     -1.615481286     -3.7935732768
C     -0.4816560394     -0.471211515     -4.1498507187
C     -2.4071854275     0.3383098957     -3.1781074275
C     -1.197576699     0.719502671     -3.9283426785


