54

 C     1.298162979     -0.2722187182     4.6273707377
C     0.5122507087     -1.3235562274     4.2598557069
C     1.1749485197     -2.0660686915     3.1694063911
C     2.5252114857     -0.3112132198     3.8049528367
C     2.4120904743     -1.386287617     2.8261469229
C     2.7363768055     0.9957166319     3.3460631194
C     0.5682340054     0.9656389534     4.25398261
C     1.4432224005     1.778548627     3.5703084136
C     -0.7497592572     -0.8437099718     3.7003683368
C     -0.700146407     0.5901745699     3.6050741318
C     0.2253572303     -2.3651336694     2.1958750261
C     -1.0255075042     -1.6057539271     2.5498494334
C     0.5766151337     -2.3986562909     0.8226658131
C     2.668068048     -1.1429715375     1.4244825161
C     1.8263409945     -1.8061308476     0.4186590754
C     3.092654272     1.215139864     2.0291901219
C     3.156924744     0.1672474592     1.0500244679
C     1.0904078508     2.3911655557     2.321021172
C     2.2246709982     2.2665015274     1.4626000102
C     -1.0931196113     1.1975893482     2.3708790689
C     -0.2145545976     2.1737920618     1.7269779806
C     -1.7592192801     -1.048845667     1.508995371
C     -1.9062058119     0.3939242548     1.4518143634
C     -0.5456949045     -2.4837534376     -0.1122446968
C     -1.7852986549     -1.8052383437     0.2630120778
C     -0.270538982     -2.5927110685     -1.4733667733
C     1.8608730057     -1.3742750635     -0.9726656724
C     1.0048670074     -2.0173728837     -1.90527009
C     2.7112437362     0.7530522276     -0.190447536
C     2.0824531992     2.0382356809     0.1068073536
C     2.2202225304     0.0055836528     -1.2654741933
C     -0.3385762254     2.3592374893     0.2959879005
C     0.8465288152     2.3099989468     -0.5363942836
C     -2.3518913781     0.9428003404     0.2145536848
C     -1.5897058415     2.0330085396     -0.3654665023
C     -2.637935073     -1.3550729112     -0.7274811657
C     -3.0602153898     0.0574387182     -0.6920600847
C     -1.2688224194     -2.3431094226     -2.5034729291
C     -2.505319749     -1.7457912153     -2.1250986458
C     0.7650480306     -1.4288309117     -3.1607136002
C     -0.5824351807     -1.770886918     -3.6359113823
C     1.5165944234     0.729067241     -2.3246193279
C     0.7549777563     1.9097250551     -1.9146740043
C     1.0024110907     -0.036508211     -3.4065364165
C     -1.6690612001     2.244925781     -1.7649036306
C     -0.4671695402     2.2063480708     -2.5663473476
C     -3.3411388097     0.4308401805     -2.0003483499
C     -3.0714831153     -0.694911227     -2.9175625734
C     -2.7105560324     1.6020581342     -2.5643962438
C     -1.0973714944     -0.6877356713     -4.3505903281
C     -0.1122140737     0.4293860167     -4.19019577
C     -0.8187433562     1.5755696781     -3.8258532618
C     -2.3804463145     -0.1573782083     -4.0325297403
C     -2.2436060416     1.3014272722     -3.8523200946


