54

 C     1.2123343096     -0.0263489831     3.7906714187
C     2.3577923279     -0.3265513863     3.1256040249
C     2.2724675215     -1.7477033816     2.675011199
C     0.3363319003     -1.2437712058     3.7689746916
C     0.9048237143     -2.1933985408     2.8513284453
C     -0.9564238839     -0.832066463     3.6688936663
C     0.4012875686     1.1129747692     3.4351727327
C     -0.9648112284     0.6578710581     3.6388041777
C     0.7051461994     1.8686080818     2.2615276836
C     2.7621616935     0.4600998066     1.9762636611
C     1.9294707704     1.5180269134     1.4857936309
C     2.9106350846     -1.8319510334     1.4723989478
C     3.312908486     -0.4668369463     1.0427867199
C     2.287376187     -2.4579208458     0.3602261637
C     0.1458561766     -2.5722675046     1.6894781813
C     0.9078954584     -2.8696658204     0.4621697328
C     -1.8023380197     -1.2691960264     2.5823026559
C     -1.2613331681     -2.0838062369     1.5446152741
C     -2.0007965669     1.0553384544     2.8516280434
C     -2.64192149     -0.1289441244     2.261675423
C     -0.4460958409     2.4723633854     1.5348399357
C     -1.7953416392     2.0231535315     1.8152466851
C     -0.2418566424     2.9503892968     0.2364805055
C     1.972209093     1.7678979599     0.0415557523
C     1.0125497036     2.6967241155     -0.4833540771
C     3.1116984239     -0.3740143923     -0.3307845915
C     2.702958606     -1.6980116995     -0.8103495164
C     2.5273731855     0.8055383575     -0.9005428778
C     1.9966850614     -1.807598663     -1.9792058509
C     0.2011610437     -2.9419791008     -0.7741804301
C     0.8478151042     -2.6562152823     -1.996945212
C     -1.8473442973     -1.9107506338     0.1952568071
C     -1.2007400107     -2.4989950113     -0.9061243768
C     -2.9616462987     0.2015958967     0.962483378
C     -2.6166989899     1.6202146129     0.7226157501
C     -2.7391210262     -0.746309196     -0.1009144123
C     -1.3073705406     2.9974026114     -0.7609974085
C     -2.4341913396     2.1152815992     -0.5829684601
C     0.7536744052     2.788003593     -1.8465484755
C     -0.6856828639     3.0696994962     -2.0359694841
C     1.9710231676     0.6810019992     -2.262494509
C     1.7054422699     -0.6217749212     -2.7847853974
C     1.1386637688     1.7548502689     -2.7635221265
C     -0.1030714185     -2.0545358045     -2.8971726997
C     -1.3764539575     -1.9958461811     -2.2470831901
C     0.4511275258     -0.8845000777     -3.4770126579
C     -2.8509797282     -0.2284333036     -1.3986851265
C     -2.8167362991     1.2410465738     -1.665962601
C     -2.2125178874     -0.8836759578     -2.5188541671
C     -1.129819297     2.2969797968     -3.0946589818
C     0.0229409912     1.5100925583     -3.6162206311
C     -0.4263615718     0.1876614899     -3.8319851782
C     -2.2265994082     1.4026458276     -2.9315826989
C     -1.8155563039     0.0976066398     -3.4549001391


