54

 C     1.1469236956     -0.0674117617     3.6472564375
C     2.2963129838     -0.3818430785     2.9794636379
C     2.1980692808     -1.756477414     2.4381536913
C     0.2690925285     -1.281300221     3.5677005752
C     0.876494123     -2.2414835743     2.660181192
C     -1.0066999763     -0.8536443681     3.368465255
C     0.3627705183     1.0700949429     3.2223582561
C     -0.9930584263     0.621537868     3.2320611715
C     0.8281753361     1.9525357164     2.1830186288
C     2.8645156959     0.4865910408     1.9892303435
C     2.2060891097     1.7320866755     1.6696903491
C     2.7907697623     -1.7192898421     1.1669600917
C     3.345320288     -0.3693248189     0.9318392401
C     2.1133647776     -2.3456538726     0.1111796367
C     0.1026907897     -2.7702539747     1.5679380672
C     0.8090877533     -2.9234472212     0.3228644376
C     -1.8478286972     -1.3947069905     2.3406360194
C     -1.3428402856     -2.423459189     1.4680684018
C     -1.887882233     0.9486836791     2.2272046814
C     -2.5585997013     -0.2865775368     1.7692370306
C     -0.1878235255     2.5190492259     1.2877219525
C     -1.559640622     1.9898613078     1.2945966998
C     0.2529927273     3.117530564     0.0503047974
C     2.559236401     2.2869119162     0.4008385817
C     1.6006791156     3.0554460199     -0.3290915911
C     3.4463906533     0.1182910935     -0.3745704268
C     3.2418717434     1.4906092454     -0.5775242069
C     2.1501341861     -1.7877806194     -1.2377613612
C     2.8051187069     -0.5966916302     -1.4972696791
C     0.1251083961     -2.8841749373     -0.9429370495
C     0.9060638104     -2.0836557433     -1.891981831
C     -1.9966972114     -2.5213704749     0.2139478192
C     -1.2599222232     -2.8713018117     -1.0018827251
C     -3.1775506824     -0.3555017155     0.5068575978
C     -3.0440103885     -1.6013167471     -0.2069598074
C     -2.3519459574     1.9931243944     0.1149473797
C     -3.231414089     0.8887120682     -0.23911677
C     -0.545605476     3.0202688056     -1.1681683934
C     -1.8467474544     2.5713919091     -1.1292451635
C     1.6550541228     2.6927727189     -1.7524425831
C     2.5769592977     1.668966082     -1.875351764
C     2.1921368165     0.3858070564     -2.3778185723
C     0.3353135084     2.5291605634     -2.2334961434
C     0.2786762223     -1.1595475687     -2.7686563577
C     0.8722657876     0.1876580575     -2.9113116157
C     -0.0352961122     1.3465120342     -2.9588880459
C     -1.8858207884     -2.268358613     -2.1188537946
C     -3.0446025399     -1.5784805876     -1.6425821917
C     -1.1521217794     -1.3348637267     -2.9614543401
C     -3.2848410233     0.8432004044     -1.6645970159
C     -2.3624648166     1.8300789206     -2.2204698882
C     -1.4619952107     1.1023098697     -3.0508713944
C     -3.1563100507     -0.3646477015     -2.3647086379
C     -1.9859588572     -0.2266264296     -3.2347106326


