54

 C     1.5232472819     0.0843320406     3.9912016506
C     0.7071434093     -1.0904711022     3.7046583407
C     1.4690353168     -1.9854150804     2.9549361355
C     2.6514267794     0.0415682544     3.1044235573
C     2.6996473343     -1.2331838975     2.5085363769
C     2.6503786291     1.2107897816     2.2497947178
C     0.7803313042     1.2288661492     3.6500923513
C     1.5722415901     2.0488885868     2.7536952101
C     -0.542998756     -0.6487900539     3.1346985018
C     -0.4973805247     0.8119497849     3.1317468341
C     -1.1470913946     -1.3429455523     2.0459127273
C     0.9282994536     -2.6573124937     1.8546824705
C     -0.4412437983     -2.4878770992     1.4575673705
C     2.7835192148     -1.3927971881     1.1239751352
C     1.9152408385     -2.5260276258     0.7840280739
C     2.793190214     1.0720454272     0.8178701492
C     2.821665919     -0.2573447568     0.2036136558
C     2.2629904341     2.1346291806     0.0134930701
C     0.9034190919     2.9081159238     1.9027594746
C     1.4468472581     3.1207357755     0.61774911
C     -1.1820440621     1.5832772985     2.1287102141
C     -0.5502660533     2.7805553711     1.6931825775
C     -2.110727953     -0.6110439773     1.211029752
C     -2.1338084947     0.8826032281     1.2434675495
C     -2.6397948471     -1.277831936     0.0943754809
C     -0.8082862545     -2.9677803339     0.1309428221
C     -2.0385009755     -2.507672555     -0.4313234552
C     1.5765707533     -2.7689066269     -0.4926821545
C     0.2508673267     -3.2915623719     -0.804470305
C     2.2984566113     -0.4569154225     -1.1392967793
C     1.9172220791     -1.7903332522     -1.5299631483
C     1.7214061774     1.9211704511     -1.3289228478
C     1.6795679067     0.6518693893     -1.9162956687
C     0.3845124099     3.4912098293     -0.3039844389
C     -0.8572563208     3.3062630818     0.3776612854
C     0.6170281733     2.8797229772     -1.5475856758
C     -2.6309185373     1.5820323906     0.1240842358
C     -1.9382262584     2.7946830834     -0.3439492982
C     -3.189658855     -0.5339149535     -1.0412717653
C     -3.1191936741     0.8726710269     -1.0486764202
C     -2.2417498121     -2.5042381018     -1.8477298304
C     -2.8833063093     -1.2424278377     -2.219887437
C     0.0751470731     -3.0853056838     -2.1916852096
C     1.0339547819     -2.0409449732     -2.5816856201
C     -1.1631495905     -2.7145999047     -2.7190637284
C     0.6083852017     0.3733593662     -2.9368041316
C     -2.1005382269     -0.6119917978     -3.2540087655
C     0.3267155806     -1.0054936524     -3.2898498969
C     -0.9931997917     -1.4714163903     -3.5118810581
C     -0.4910988299     2.5162784602     -2.325277071
C     -1.7856586366     2.6374274281     -1.7458132927
C     -2.5847314529     1.5156143887     -2.2017771865
C     -0.4706168866     1.2818609202     -3.0900867346
C     -1.8570118485     0.7720250158     -3.1649168811


