54

 C     1.0756150713     0.0805197197     3.7455026239
C     2.2670351536     -0.2189039058     3.0624023601
C     2.1449773889     -1.5362749415     2.534083741
C     0.2020481041     -1.130554356     3.6695082874
C     0.7870431608     -2.0197544975     2.7315982461
C     -1.1042570275     -0.7122137853     3.4934489884
C     0.3015131519     1.1882599804     3.3776863827
C     -1.0963256355     0.7568008489     3.4404647441
C     0.7400602935     2.0465516274     2.2700578212
C     2.8075934246     0.6282677524     2.0309783003
C     2.0625998478     1.7948713999     1.6362005742
C     2.8081534288     -1.5758174147     1.2756613974
C     3.3696537248     -0.2510458013     1.0105247247
C     2.1748398082     -2.2624980491     0.2537028414
C     0.0234274159     -2.4857012187     1.5950019153
C     0.7772214699     -2.7274563805     0.3984508981
C     -1.9293091693     -1.2006000929     2.4448124481
C     -1.3887658561     -2.0884247431     1.4415516919
C     -2.0440521049     1.1631572189     2.5243957037
C     -2.7155365017     -0.0536433433     2.0104871179
C     -0.288809471     2.5901411571     1.4619328195
C     -1.6903625645     2.172661989     1.5816209146
C     -0.0871540882     2.9082351776     0.0624855203
C     2.2559398139     2.2405035393     0.28275293
C     1.1541080881     2.7611003946     -0.5161380168
C     3.4770246464     0.1809948807     -0.308858585
C     3.0710431931     1.506877551     -0.6178460392
C     2.3757671642     -1.8627073571     -1.1194074829
C     3.0441583508     -0.6716373485     -1.4213990089
C     0.1801076954     -2.7177726671     -0.8849356754
C     1.193744135     -2.2465939145     -1.854997204
C     -2.009227849     -2.0783649781     0.1079803989
C     -1.2192755925     -2.4655529042     -1.0759661395
C     -3.287265336     -0.0443743722     0.7816593922
C     -3.119678339     -1.1813028575     -0.1136696222
C     -2.2860511079     2.1823187314     0.3013059496
C     -1.289322515     2.6063536271     -0.6884911036
C     -3.2408223588     1.1825577442     -0.0478418116
C     -1.2478823058     2.0787723017     -2.0026686694
C     1.2497399927     2.2568144595     -1.8798937455
C     2.4594029682     1.5167922123     -1.9324577647
C     2.4769089938     0.1972079176     -2.4584311992
C     0.087378368     1.8268882934     -2.6091847756
C     0.8239334083     -1.5436547333     -2.9890698053
C     1.3960547823     -0.2190518313     -3.2313766293
C     0.2585459813     0.669586373     -3.4477436235
C     -1.5941166034     -1.9811504282     -2.3862787924
C     -0.5655762159     -1.4923427118     -3.2917764383
C     -0.8834674992     -0.1678392213     -3.7090319579
C     -3.3875336041     -0.6751976065     -1.414046167
C     -3.3334279056     0.7930638518     -1.3677729209
C     -2.3825397949     1.2317601534     -2.3912036578
C     -2.6832075818     -1.0837824911     -2.5318272142
C     -2.1716719581     0.1331550398     -3.2339446831


