54

 C     1.4920703183     -0.2493683408     4.1736435599
C     0.6386711028     -1.3674355895     4.1535199829
C     1.1343376604     -2.3007573154     3.1365249593
C     2.4971497147     -0.4648940575     3.1935816677
C     2.309564006     -1.7581541441     2.531869022
C     2.6191195904     0.7105193745     2.3663399449
C     0.7200267636     0.8989328388     3.6570240785
C     1.4293066933     1.5646626463     2.628849287
C     -0.6318981523     -0.9536596558     3.6633270143
C     -0.6183107472     0.4810676943     3.3869214586
C     0.0457547     -2.7223546128     2.3068477642
C     -1.1213160883     -1.8573916991     2.6525950941
C     0.2793227617     -2.9713424379     0.9693104168
C     2.4965635176     -1.8642110862     1.1004544671
C     1.5374822901     -2.620262431     0.3471707461
C     3.021354934     0.5605436268     1.0651505356
C     3.0624506281     -0.7420785237     0.4084427246
C     2.6314950726     1.5441783405     0.0696172804
C     0.7382677558     2.1597563665     1.5418750895
C     1.5063587203     2.3749324447     0.2995340816
C     -1.3089457581     0.970863961     2.2599918785
C     -0.7025270405     1.9905839924     1.4278820598
C     -1.9714297411     -1.3939367084     1.6650982857
C     -2.2814646316     0.0565042264     1.627273234
C     -0.7760003339     -2.7722562965     -0.0090480025
C     -1.9936743997     -2.1074765275     0.3487590475
C     1.2443639044     -2.3281226545     -1.0290955429
C     -0.1860903369     -2.5304432131     -1.2722434988
C     2.8340516196     -0.5022901862     -0.9828782428
C     2.8284308296     0.9434250808     -1.225004482
C     1.9378338738     -1.3248774327     -1.7516525899
C     2.2091793287     1.4799246122     -2.339994526
C     0.8241946183     2.8668903033     -0.8601212581
C     1.3150979968     2.5893190968     -2.1477011965
C     -1.3933784287     2.3873810965     0.1922202227
C     -0.6454566303     2.9145943043     -0.8987918061
C     -3.020442304     0.5267931773     0.5655389797
C     -2.6601278038     1.7865057721     -0.1133063211
C     -2.7836410125     -1.6023812974     -0.6798426383
C     -3.5545322131     -0.3894971762     -0.4397710882
C     -0.9070435315     -1.851893571     -2.3158260908
C     -2.2866453688     -1.5330301638     -2.0577423943
C     1.2666051854     -0.7293266178     -2.8955039544
C     1.552344182     0.5877660718     -3.275613873
C     -0.1602657181     -1.0003556535     -3.1801157234
C     0.1554241468     2.3929900535     -3.0158865892
C     -1.0503145157     2.6599920453     -2.2639221937
C     0.3052115236     1.2069015083     -3.7176278939
C     -0.7469513683     0.2159896421     -3.7004418526
C     -3.0856034989     1.6363299352     -1.4621818291
C     -3.6534286464     0.3036513417     -1.6307590749
C     -2.8646349732     -0.361820927     -2.6442572839
C     -2.1905444207     1.8892046271     -2.535518089
C     -2.0373657451     0.5994141689     -3.2945148174


