54

 C     1.448868724     0.0435701239     4.0630957224
C     0.6119841246     -1.1372883951     3.8067879376
C     1.3196046627     -1.9591211594     2.9394532831
C     2.5435402731     0.0447846823     3.1392559195
C     2.5758175193     -1.2280726071     2.5465265195
C     2.4026504453     1.2325284614     2.2770634718
C     0.6541003653     1.1801963674     3.8587113957
C     1.290638177     1.9963114747     2.8292935077
C     -0.70087755     -0.6917444814     3.426891388
C     -0.7178767517     0.7661249202     3.6458761547
C     -1.3408272541     -1.2245043701     2.2615683827
C     0.737956225     -2.4687797141     1.7617324238
C     -0.6128717881     -2.18485662     1.4099988083
C     2.7316329138     -1.3700838437     1.1792847454
C     1.7404533546     -2.3350942838     0.7017638349
C     2.5206147619     1.1184574754     0.8723805443
C     2.9178837097     -0.195443646     0.3430890201
C     1.6736057372     1.9649918198     -0.041836816
C     0.4858153233     2.7567204492     1.9905308534
C     0.6980793702     2.7779945761     0.5481530969
C     -1.5261795946     1.5779413101     2.8610832484
C     -0.9271212263     2.6886108001     2.1803642262
C     -2.3806267261     -0.3976505491     1.6167856431
C     -2.4650334211     0.994813668     1.9193150266
C     -2.8725156633     -0.810912226     0.3386362592
C     -0.982676285     -2.3870948312     -0.0051494661
C     -2.2023527873     -1.8590036196     -0.4458558638
C     1.4569858072     -2.4772517537     -0.6405997292
C     0.0602229062     -2.6951431069     -1.047888961
C     2.7873128765     -0.4310087453     -1.0096720141
C     2.3319850983     -1.7233822169     -1.5236331994
C     1.5215564832     1.6297224771     -1.4717933521
C     2.3485640166     0.583162718     -1.9716296145
C     0.2571813618     1.8865253874     -2.1878756129
C     -0.6113839435     2.9392965872     -0.1017156944
C     -1.5889232418     2.8888355954     0.9220994439
C     -2.6569266689     1.9534883088     0.8222801039
C     -0.8819142374     2.390802617     -1.3949184497
C     -3.3702272193     0.1408091223     -0.5848552673
C     -3.0131774529     1.5104922723     -0.4366879545
C     -2.184691558     1.8457968147     -1.6031130844
C     -2.4217117313     -1.5740426659     -1.8588813623
C     -3.0180482772     -0.2784273521     -1.9120751601
C     -2.3708279833     0.8028189745     -2.5960694713
C     -0.2328556489     -2.5580999381     -2.4246192239
C     -1.4667870366     -1.8886988994     -2.8173146783
C     2.0007348365     -1.5678353008     -2.8577523484
C     2.0429945595     -0.0951582625     -3.1681248903
C     0.7989142372     -2.086757348     -3.3665573311
C     -0.0413244414     1.1451708398     -3.3764185384
C     -1.3634175909     0.5053795242     -3.5043389157
C     -1.1321136296     -0.8881685225     -3.826204517
C     0.9090806739     0.208039407     -3.9102268354
C     0.2145111848     -1.0597622856     -4.1762126396


