54

 C     1.2527458468     0.0669702381     3.8349019326
C     2.375632518     -0.1039919685     3.0255852665
C     2.4019980575     -1.5107747497     2.5933386869
C     0.4270933555     -1.1643684421     3.7338115109
C     1.1710508035     -2.1334429804     3.0027406653
C     -0.8468426847     -0.7472874501     3.2741531219
C     0.43556839     1.183096872     3.6558654084
C     -0.9159247527     0.6915918374     3.4403718498
C     0.6942517866     2.1301809338     2.616628012
C     2.5490160658     0.7089467344     1.8598808286
C     1.7067332577     1.853983581     1.6248275112
C     2.8318127739     -1.5707800035     1.2562211346
C     2.8714094433     -0.1906060806     0.758696602
C     2.3068451489     -2.5874314891     0.4242721597
C     0.4845090677     -2.9272299625     2.0557297188
C     1.1879810712     -3.3266164916     0.9008442593
C     -1.4637724232     -1.3434927244     2.0796276348
C     -0.8483681954     -2.5130518383     1.5850714985
C     -2.2572809046     -0.4943639277     1.1513452585
C     -1.5549394349     1.4963675743     2.5099275215
C     -0.602823476     2.5540267366     2.1458611727
C     -2.3925291114     0.936586669     1.4666079423
C     -0.7255504937     3.1695037246     0.9265916493
C     1.4637474755     2.2440676627     0.2225217697
C     0.3469951376     3.0794172404     -0.059908823
C     2.5684315319     0.1056214032     -0.5902761904
C     1.9694939192     1.4101754966     -0.8810440017
C     2.1165198638     -2.3321434594     -0.9859384077
C     2.3499250487     -1.0395387837     -1.5232858384
C     0.2647601383     -3.4569608969     -0.2139843299
C     -0.9643714445     -2.8792636754     0.1724610641
C     0.8987143415     -3.0465886503     -1.4041671084
C     -2.4501429841     -0.912176255     -0.2345571924
C     -1.7177488245     -2.0819752791     -0.7518398515
C     -2.8955707519     0.0501772964     -1.2122202033
C     -2.76801229     1.8496249269     0.4477044753
C     -1.9503335582     3.0307156638     0.2209043069
C     -3.1200921281     1.3837682464     -0.8450261005
C     -0.2844370543     3.175846109     -1.3800483783
C     -1.7252273157     3.1888495017     -1.1862518122
C     -2.5130080414     2.2503528073     -1.8625565256
C     1.423062302     1.6262579944     -2.1919928732
C     0.2371709412     2.4534332902     -2.4288414614
C     1.7393161278     -0.7600941124     -2.7958454882
C     1.386487072     0.5692371292     -3.1236767352
C     0.0863506604     -2.5279155693     -2.4087549009
C     -1.274154201     -2.0850122286     -2.108582706
C     0.6421304615     -1.560311483     -3.2714143365
C     -2.3696770697     0.0559758867     -2.5970025405
C     -1.9895979164     1.44017194     -2.903732619
C     -0.6578272172     1.6889282086     -3.3392418795
C     0.0881275143     0.6023921064     -3.8358778346
C     -1.5873173302     -0.9940329115     -3.0400814002
C     -0.4023305184     -0.7068164182     -3.8103434134


