54

 C     1.4698717451     0.0192885478     4.0806682871
C     0.649068731     -1.193341076     4.061894742
C     1.3744977334     -2.2443173227     3.5152243711
C     2.617340591     -0.2236013992     3.2793826787
C     2.6654229316     -1.6372852033     3.0303416762
C     2.5934526693     0.6967853074     2.1492536823
C     0.7106881394     1.0406205658     3.4485646702
C     1.460048266     1.5821989325     2.3403523131
C     -0.6557512108     -0.8429055027     3.5006811426
C     -0.5978839153     0.5842781029     3.1442830157
C     -1.2687737682     -1.7088922086     2.6029568975
C     0.8215806777     -3.035054704     2.4328547717
C     -0.5277592741     -2.8397661608     2.0369375529
C     2.8450167228     -2.0866575338     1.7435641748
C     1.8067308785     -3.0614290041     1.3920766377
C     2.8437068289     0.2472144162     0.8016415101
C     2.9705927304     -1.1776838716     0.6107290144
C     2.3238444665     1.0290916669     -0.297645488
C     0.7863305665     2.1675514732     1.2636204803
C     1.4641760254     2.1838816529     -0.0112759622
C     -1.3090629556     1.1239413874     2.0256218452
C     -0.6804966121     2.1483584106     1.2121164639
C     -2.1269453176     -1.1649274561     1.5696613652
C     -2.2743927119     0.2608069853     1.3780820351
C     -0.8910087192     -2.8853083114     0.6467032582
C     -2.0059376177     -1.9682982576     0.4130664353
C     1.4668251807     -2.8825876984     0.0414630684
C     2.2955093579     -1.7852974937     -0.4891999307
C     0.101129491     -2.9229221805     -0.3762253561
C     2.0980027936     0.401480096     -1.5866208517
C     1.87688727     -1.0292885774     -1.5992409488
C     1.5018232417     1.1634546367     -2.6412992592
C     0.846340995     2.8773037087     -1.0569114319
C     1.1283055528     2.5151469     -2.4252479442
C     -1.3509962666     2.6390045504     0.0290062719
C     -0.5583926024     3.2380711831     -1.0168160877
C     -2.8615602636     0.6909114243     0.1742734249
C     -2.5612041386     1.9692814569     -0.3829076727
C     -2.3830656984     -1.4892159071     -0.8935718846
C     -3.0846996688     -0.2456003699     -0.9417262827
C     -0.2055041105     -2.3075096008     -1.6436214252
C     0.7379891202     -1.5206665087     -2.3425834774
C     -1.5296442029     -1.7950737294     -1.9937036576
C     0.5220735008     0.5843903147     -3.575067291
C     0.0309374941     -0.6845459014     -3.2917830141
C     -1.4075719152     -0.9022677125     -3.1138747682
C     0.0269413497     2.8747865757     -3.247820879
C     -1.0286787507     3.2953074504     -2.3953654281
C     -0.4104990392     1.6545672709     -3.9291578102
C     -2.9319136186     1.9186594128     -1.7919125748
C     -3.1291221508     0.5044937956     -2.1279513712
C     -2.2846186191     0.2061819965     -3.2469969975
C     -2.1955212757     2.5458175863     -2.7688762595
C     -1.7741306275     1.4715679036     -3.7376177019


