54

 C     1.6413495492     -0.1598502488     4.4463705525
C     0.800946837     -1.298363619     4.6820644714
C     1.2517594324     -2.3992252714     3.9437349402
C     2.598035492     -0.4878202682     3.4072272756
C     2.30989205     -1.8520058345     3.0630190705
C     2.4565210342     0.5025344648     2.3814926157
C     0.8395027752     0.9380159089     4.003337523
C     1.3901723444     1.4462332427     2.8005856915
C     -0.5552277513     -0.9237045732     4.256537142
C     -0.5681649478     0.5006468756     3.9774047869
C     0.1708817713     -2.7183947024     3.0368767833
C     -0.9832945318     -1.8279071474     3.2438564636
C     2.0087743112     -2.1675359321     1.7124381584
C     0.646965166     -2.7699396479     1.7156977009
C     2.4588883218     0.1564239464     1.0108572305
C     2.2613910471     -1.2485998088     0.6682231959
C     1.9767819167     1.1149025933     0.021185035
C     0.5580935424     2.0521206505     1.8093433398
C     1.0192053459     2.1064014983     0.4271727393
C     -1.3524208845     0.9391013992     2.9358977061
C     -0.8447473294     1.9427074415     1.9923407938
C     -1.7515488264     -1.3634119032     2.1065592081
C     -2.1186241728     0.0171631481     2.1060582206
C     -0.2061662377     -2.5282940529     0.6171840889
C     -1.4999746729     -1.9306826015     0.7816856917
C     1.6926327876     -1.5519444634     -0.6278888325
C     0.4751258138     -2.3321741791     -0.6476296804
C     2.0704294457     0.7565171885     -1.3786845944
C     1.9504430378     -0.6696553738     -1.727998031
C     1.6212748716     1.7154410161     -2.3206214366
C     0.144249488     2.6661495701     -0.5825446274
C     0.6100708654     2.6689384108     -1.9158802904
C     -1.6847232478     1.9408669547     0.8441388002
C     -2.4158074932     0.6877191543     0.8770801616
C     -1.2947735453     2.5117024791     -0.3722851019
C     -2.1239702208     -1.3581743304     -0.417185746
C     -2.6473143924     0.0042659853     -0.3444267839
C     -0.3269682585     -2.3074476514     -1.7925665933
C     -1.6909171993     -1.7883385875     -1.6902057791
C     1.3810562514     -1.0098360237     -3.0031977888
C     0.2254729031     -1.8606628498     -3.0027603952
C     1.2989904891     1.345468399     -3.6939785646
C     1.1430132427     -0.0171982727     -4.0078590348
C     -0.3103377887     2.8131111769     -3.0384566937
C     0.1758699647     2.1138798141     -4.1665450217
C     -2.1045562671     2.1541568604     -1.5041339402
C     -2.683795407     0.8120947178     -1.5142518093
C     -1.6785859887     2.4429329961     -2.8063798193
C     -1.9446779339     -1.0437293471     -2.9191180234
C     -0.8105697028     -1.2358887535     -3.812772602
C     -0.2377643537     -0.1846054311     -4.531180381
C     -0.8490122479     1.1092159691     -4.503849026
C     -2.5019656574     0.2649457175     -2.8508969561
C     -1.9918810192     1.3117332957     -3.6950718336


