54

 C     1.5614032726     0.024317545     4.0092335567
C     0.7522935484     -1.1694397527     3.9968178019
C     1.4094412587     -2.1038433392     3.1804137419
C     2.6508578489     -0.1274665951     3.0293114006
C     2.5474224281     -1.4041107663     2.5090787786
C     2.5953504131     0.9640535803     2.0906380751
C     0.7842407231     1.0788444348     3.530327339
C     1.4891660011     1.8023294377     2.4964396512
C     -0.6074649413     -0.7820745719     3.6059666118
C     -0.5761239424     0.6340018309     3.2435056401
C     -1.3445681597     -1.6270594585     2.7990925353
C     0.7235361862     -2.8529501146     2.2007849257
C     -0.6933953893     -2.8142004555     2.1998167713
C     2.4398728474     -1.6601719477     1.0936833662
C     1.4025556834     -2.6606365004     0.9108813073
C     2.7671303414     0.7382112583     0.683818783
C     2.6026146727     -0.6142148253     0.1403705105
C     2.3815946743     1.8312807731     -0.123014161
C     0.7704106495     2.5557423889     1.5661441676
C     1.5019384861     2.8483156061     0.380518206
C     -1.2746568021     1.157084367     2.1235798548
C     -0.6884611372     2.3161216552     1.4212860475
C     -2.2543644335     -1.0792664714     1.7969620679
C     -2.2005749612     0.284348377     1.3874373169
C     -1.3376444011     -3.0639156389     0.9877486121
C     -2.4136017112     -2.0764165558     0.7908934441
C     0.7253552236     -2.7687849521     -0.3191157176
C     -0.6684151115     -3.1503832499     -0.2482145517
C     2.0303349238     -0.7835798261     -1.2094508304
C     1.1701487773     -1.9345067453     -1.4501178654
C     2.1124264885     1.6989308072     -1.5482607595
C     1.9185001711     0.3753245331     -2.1020257831
C     0.8575687282     3.4345202752     -0.7382286883
C     1.325733314     2.8023681162     -1.964649004
C     -1.292000276     2.7304261026     0.2274135685
C     -0.5303038194     3.441927773     -0.7814535626
C     -2.5950868422     0.6061673143     0.0001869082
C     -2.2273537018     1.8725907757     -0.5016786203
C     -2.5979106093     -1.8148763732     -0.5563929647
C     -1.5827459011     -2.6409040625     -1.2543256847
C     -2.8288305763     -0.466984199     -0.9973356903
C     0.3322096977     -1.9335733451     -2.6112223404
C     -1.1074559892     -2.2431945896     -2.4599215605
C     1.0740290653     0.3147369105     -3.2593194081
C     0.3832758016     -0.8828186763     -3.5494420641
C     0.1927943896     2.6137502227     -2.823799834
C     -0.9765929327     3.0398220689     -2.102907086
C     -2.0477889558     2.1175644446     -1.9364822911
C     0.1309015448     1.429142589     -3.5759521668
C     -2.6091530216     -0.2181561698     -2.3822558476
C     -1.844526721     -1.2110943936     -3.1645775986
C     -0.9816569395     -0.5479150109     -4.0275636739
C     -2.2085669753     1.068019919     -2.8662433481
C     -1.1438629287     0.8525954906     -3.8483999069


