54

 C     1.5862675015     0.1335495228     3.9616069222
C     0.7949436234     -1.0726921846     3.7986152883
C     1.5430269503     -1.9759085916     3.0647246078
C     2.6901874325     0.0582411154     2.9577741799
C     2.7083693301     -1.2283870234     2.4668881459
C     2.565105059     1.137563573     2.0144206868
C     0.804688518     1.1928330512     3.5699011603
C     1.5293041945     1.9894095524     2.5878753059
C     -0.5251493392     -0.6991089818     3.2466389091
C     -0.5498249789     0.7250087304     3.1676167048
C     -1.163542217     -1.4679240816     2.2349770331
C     0.9582939909     -2.7586730898     2.0597356739
C     -0.4648702112     -2.6964380577     1.789894548
C     2.6917838597     -1.4943745399     1.0724569109
C     1.8276644885     -2.6466228766     0.9082732846
C     2.5553295872     0.9277221902     0.5799536804
C     2.6256082469     -0.4452735872     0.0827656313
C     1.9300795505     1.9723984504     -0.262403157
C     0.8060627155     2.7905274982     1.7841381383
C     1.2307233112     3.0206234667     0.4231198647
C     -1.259002305     1.4233746849     2.1635917755
C     -0.6764452679     2.6953261639     1.7681455456
C     -2.0421191447     -0.7627560738     1.2772583486
C     -2.0596018553     0.6905470007     1.1866954545
C     -2.4884856039     -1.5036264821     0.1297882246
C     -0.8670201237     -3.3014855445     0.5813741254
C     -1.9960152467     -2.7910518966     -0.1254877651
C     1.3765014553     -3.0056464273     -0.3485973509
C     0.1088396149     -3.6216038162     -0.4400842279
C     2.061595461     -0.7774773187     -1.2435584817
C     1.5912634167     -2.1100819281     -1.4748053259
C     1.5495572469     1.695684594     -1.6657268065
C     1.5795968492     0.29202549     -2.136693224
C     0.6262981178     2.6088312458     -2.3092321536
C     0.1210536799     3.6702199492     -0.1827582708
C     -1.0906665324     3.297845167     0.6100690674
C     -0.1502265866     3.5240824271     -1.498576643
C     -2.4557681669     1.3643985246     -0.0841128694
C     -2.0286381358     2.7073130949     -0.2933218806
C     -1.5843646576     3.1367967868     -1.6273950896
C     -2.7473682592     -0.845968609     -1.1661523613
C     -2.7309894449     0.5514673662     -1.3008795197
C     -1.7567531108     -2.8929716488     -1.5788317336
C     -0.4305027438     -3.29990309     -1.7416848019
C     0.5096031603     -2.4049618719     -2.3977672933
C     -2.242979808     -1.7323755637     -2.212966631
C     0.6802588336     -0.0955927042     -3.1928878756
C     0.0111636523     -1.3894467738     -3.1807615047
C     -1.4465770075     -1.1495217857     -3.2323695232
C     -0.324647342     2.1237552849     -3.2650338791
C     -1.7042222615     2.3491287866     -2.7194841879
C     -2.3524366243     1.059846068     -2.6270413286
C     -0.2925787388     0.827934871     -3.6829793388
C     -1.632374154     0.2034198725     -3.4967059831


