54

 C     1.2595809395     0.2300796168     3.8080625365
C     2.3702850525     0.0366795065     2.9980462347
C     2.3776744163     -1.3702197827     2.5699068557
C     0.4358356096     -1.0132255979     3.7435973746
C     1.1037998276     -1.9521518205     2.9048913709
C     -0.887648469     -0.6139634466     3.4507985852
C     0.4327116455     1.3354641978     3.564022341
C     -0.9514311123     0.8315222002     3.4329816056
C     0.6847599199     2.2175708927     2.492636703
C     2.6204867531     0.8561199008     1.8501104068
C     1.7742116285     1.9732717781     1.5624166451
C     2.8602881238     -1.4304214134     1.2692292169
C     3.0127638497     -0.0448177513     0.7679420133
C     2.3566862149     -2.4261075768     0.404888882
C     0.3621478438     -2.6741279503     1.8654058368
C     1.065171135     -3.0214276088     0.6755667037
C     -1.6288266238     -1.3006569507     2.4539859127
C     -1.0375879698     -2.3813245308     1.7169693881
C     -2.5055540847     -0.5762815344     1.5621174911
C     -1.603356435     1.5218742     2.4164172022
C     -0.6365629672     2.5207732902     1.9318465526
C     -2.443729269     0.8396487563     1.4468945516
C     -0.7413718355     3.0268194667     0.6862713232
C     1.6031664474     2.3761552105     0.1553015688
C     0.4499214518     3.1700722078     -0.1526874496
C     2.7826050011     0.2651871759     -0.5829737437
C     2.1624387121     1.5567161862     -0.9284254581
C     2.4240376975     -2.1742139162     -0.9770982701
C     2.5964913097     -0.8675110012     -1.4861372326
C     0.3756067084     -3.1818808117     -0.6188382715
C     1.2657935944     -2.7635400057     -1.6245073082
C     -1.7096550252     -2.4608056248     0.4192401697
C     -2.6624382505     -1.3882153999     0.3745391186
C     -1.0223420188     -2.8677276316     -0.7647841584
C     -3.0227654368     -0.801600245     -0.8382248614
C     -2.6461011672     1.4711412772     0.1241164272
C     -1.8815612076     2.6731680052     -0.1848531414
C     -3.0180428705     0.6646873237     -0.9797597367
C     -0.0396326952     3.2792512405     -1.4668970519
C     -1.49500426     2.9728906203     -1.4867490383
C     1.6058459567     1.6769542405     -2.2451859867
C     0.5483047746     2.5821095196     -2.5071098126
C     1.7626403574     -0.7464864601     -2.6720942396
C     0.8692355314     -1.9284480038     -2.7134575956
C     1.3050013777     0.4848526189     -3.0551948199
C     -1.4505237245     -2.2869904338     -2.0201421046
C     -2.5152421987     -1.3609696363     -2.0298373781
C     -0.4732354285     -1.7757434209     -2.9982992021
C     -2.5827615212     0.973377231     -2.3441021551
C     -1.7634330429     2.1006171045     -2.5911097319
C     -0.515738334     1.8992075639     -3.2832339835
C     -0.0553706698     0.6227711679     -3.6230426996
C     -2.2249449773     -0.2634464221     -2.957492593
C     -0.9526302951     -0.4866775224     -3.5159650033


