54

 C     1.2218329337     -0.0298427061     3.9733676787
C     2.409340867     -0.2405535747     3.2840080601
C     2.2878523614     -1.5064965542     2.4993086281
C     0.3932505366     -1.2489290935     3.7773069316
C     0.9894646367     -2.025750668     2.7070989719
C     -0.918353606     -0.8742274599     3.6984495414
C     0.4000868132     1.1200513447     3.7140414406
C     -0.9563675088     0.6168792235     3.7748976473
C     0.7443275703     2.0305826186     2.6325919963
C     2.8548499907     0.7332582543     2.3909227835
C     2.0506362538     1.8565171341     2.0421684754
C     2.8128373273     -1.2890225121     1.199534661
C     3.2811056446     0.0653918361     1.1436652073
C     2.150675741     -1.8272930206     0.0633468023
C     0.1896926638     -2.3905875209     1.5562598047
C     0.8856038157     -2.5237586792     0.2864370923
C     -1.7610018747     -1.2687895013     2.6010782691
C     -1.2373090735     -2.0468471058     1.522281939
C     -1.9447590866     1.0435928538     2.9364205282
C     -2.5994259601     -0.1195571199     2.3096451787
C     -0.3462623369     2.5110178296     1.727076042
C     -1.6868713306     2.0128286327     1.9063962792
C     -0.0324184759     2.8581522814     0.3798586882
C     2.2519141563     2.0387266724     0.6055099158
C     2.9673980418     0.868525711     0.0561313739
C     1.2959193206     2.6135163625     -0.1777154762
C     2.3367252725     -1.1455643116     -1.2158474873
C     2.5829741178     0.292348355     -1.1936725402
C     1.678783649     -1.6986556361     -2.3528458356
C     0.1024539332     -2.826447799     -0.8599621584
C     0.6297143197     -2.6550814586     -2.1492375446
C     -1.9126389712     -1.9183505624     0.2147486433
C     -1.3280509583     -2.5231990446     -0.9019962781
C     -2.8970843466     0.225380309     1.0113242029
C     -2.4766502064     1.6242540914     0.7726982878
C     -2.7762110146     -0.7469565614     -0.0488532763
C     -0.9528584147     2.7358837226     -0.7187150813
C     -2.1860591181     2.027100261     -0.534015564
C     1.1673350499     2.265950479     -1.577804398
C     1.8402964055     1.1357159722     -2.128274378
C     -0.2036227949     2.5278951314     -1.9433830579
C     1.3067173644     -0.8854785292     -3.4637939198
C     1.2575178717     0.5289849278     -3.3121236334
C     -0.4574395343     -2.3214762644     -3.0668805929
C     -1.6555699312     -2.1461171212     -2.2765517982
C     -0.0115294084     -1.3318539034     -3.9475901167
C     -2.9064167662     -0.2566884682     -1.3507528206
C     -2.6552888359     1.18083472     -1.6114990688
C     -2.4540305668     -1.0076456477     -2.513868633
C     -0.7826587963     1.8897642798     -3.0567144561
C     0.0059432916     1.009971537     -3.8364833024
C     -0.81222671     -0.1743697234     -4.1545433567
C     -2.0933865918     1.2689462192     -2.878991051
C     -2.0507577207     -0.0525302028     -3.5144592255


