54

 C     1.5365729055     0.0442258975     4.0100209002
C     0.7053121476     -1.138286144     3.7896095395
C     1.4043907688     -2.0011846189     2.9332033515
C     2.6224568701     -0.0188725851     3.0353541842
C     2.5919749456     -1.2612935323     2.4190995209
C     2.5610277713     1.1298377029     2.1515680141
C     0.7552314643     1.1238231527     3.6045991833
C     1.4034930704     1.8889771965     2.5461741815
C     -0.6472417307     -0.7584310599     3.4347824501
C     -0.6264430824     0.7024859279     3.3791935486
C     -1.3748499231     -1.4717579498     2.4425625428
C     0.7616312106     -2.5846204773     1.8353904855
C     -0.6536153307     -2.5017084716     1.6917999418
C     2.6302445164     -1.4172102686     0.9987432483
C     1.5988082328     -2.3406594861     0.6417530188
C     2.8785455342     1.0110832501     0.7615509374
C     2.9009638497     -0.3049759047     0.1223205623
C     2.4258626725     2.1072310562     -0.0400179315
C     0.6053381356     2.5824522064     1.5780972977
C     1.2032049771     2.8405954904     0.3264166597
C     -1.3893543411     1.3752736342     2.4440295028
C     -0.8135575108     2.3976920335     1.5773053973
C     -2.4552782077     -0.755968727     1.7157422977
C     -2.3992677967     0.6732668933     1.6994506137
C     -3.0550748505     -1.3672852048     0.5720872568
C     -1.1395329311     -2.8820654813     0.4062699498
C     -2.4299760682     -2.5440846564     -0.013219863
C     1.0757252248     -2.4090041944     -0.6697630599
C     -0.2581233479     -2.8982487359     -0.7734006952
C     2.552231505     -0.4453880763     -1.2914797754
C     1.6368711905     -1.5359620425     -1.7042034167
C     2.4734055767     2.0143610479     -1.4205388591
C     2.574760132     0.7513673872     -2.0878877549
C     0.4345720189     3.059930662     -0.870903394
C     1.3082270191     2.7332303777     -1.9731992853
C     -1.5485808897     2.3890333741     0.3502458386
C     -2.6142695574     1.4157104645     0.4768834387
C     -0.9426813241     2.6779614451     -0.9251721519
C     -3.5154181362     -0.5786448331     -0.5260756901
C     -3.1308179407     0.7788307353     -0.6451832992
C     -2.435805845     -2.4180543274     -1.4550021749
C     -1.0757188176     -2.6163896254     -1.9210640196
C     -3.0894198711     -1.2274368663     -1.7608375664
C     0.836259053     -1.3730781586     -2.8786569266
C     -0.5532020831     -1.7949849309     -2.9135699013
C     1.7357500611     0.8755445268     -3.2534264621
C     0.8656822736     2.079975251     -3.0822898245
C     0.9026586409     -0.1417757199     -3.6111532632
C     -1.4484364305     1.962275379     -2.1330342229
C     -2.508179805     1.0168437503     -1.9648899129
C     -2.5070350848     -0.2582687952     -2.6460836236
C     -1.3643537143     -0.6378492309     -3.3940274195
C     -0.5204832116     1.6810000382     -3.2155119095
C     -0.4844838864     0.370481224     -3.7736614607


