54

 C     1.5568667418     -0.0007385649     4.0033466535
C     0.7712150397     -1.2111028607     3.734878562
C     1.5144245648     -2.0626299112     2.9140089145
C     2.6183790455     0.0090547892     3.0349761017
C     2.6621976892     -1.2417456129     2.4102725678
C     2.4701990518     1.1613574484     2.1550651846
C     0.7385559379     1.0935781491     3.685035561
C     1.3632006611     1.9207434005     2.6582724528
C     -0.5509569503     -0.8459484869     3.2913167511
C     -0.5861349333     0.6180193316     3.3604281228
C     -1.1782265459     -1.5049454259     2.1892164937
C     0.9369659423     -2.7068056986     1.8121383292
C     -0.4518328929     -2.5622333709     1.4771095531
C     2.7383339118     -1.4060246497     1.0093004096
C     1.8800560921     -2.5318232806     0.698764981
C     2.6714420354     1.0388610909     0.719347381
C     2.7828806271     -0.2839810972     0.0919696024
C     2.1394241655     2.0747612385     -0.0652698916
C     0.5757505421     2.7265733508     1.7863052221
C     1.1678956786     3.0350470835     0.5120079385
C     -1.3632143783     1.3597932598     2.4771940236
C     -0.8425145589     2.5627066567     1.812360746
C     -2.1731117607     -0.7283899527     1.4155332878
C     -2.2385808724     0.7059305485     1.5749001997
C     -2.6269127871     -1.2298637074     0.1906548759
C     -0.8580750675     -2.966097054     0.1233188209
C     -2.0877702739     -2.4462970506     -0.4000648159
C     1.4989673285     -2.7667493396     -0.5743623759
C     0.1709307836     -3.2785693258     -0.85377736
C     2.3115416875     -0.4901740222     -1.2722307281
C     1.8772874669     -1.8253295761     -1.6322382797
C     1.8512776519     1.9217528403     -1.4700905575
C     1.7905963895     0.6239853957     -2.0746948688
C     0.3791589898     3.5053628881     -0.5285427145
C     0.8710682582     2.9127710083     -1.7906599625
C     -1.6297185715     2.7723687578     0.6327676488
C     -2.492498213     1.614210312     0.4600848707
C     -1.0520001283     3.3719671567     -0.5090725884
C     -3.0448832279     -0.3211030579     -0.8969282035
C     -2.8200266053     1.1044534922     -0.8130673358
C     -2.2953889635     -2.3349874445     -1.8093951108
C     -2.8146578181     -0.9951348668     -2.0910811297
C     -0.0251494336     -3.0329316592     -2.2366179386
C     0.9862479328     -2.0611451944     -2.6765164915
C     -1.25350959     -2.5665771206     -2.7101084808
C     0.7337500676     0.3813005123     -3.0868201119
C     -2.0476012673     -0.3909984553     -3.1763957627
C     0.3374428179     -0.9774627283     -3.3730096388
C     -1.0298001219     -1.3281181056     -3.5093472346
C     -0.2083790038     2.6206630278     -2.5871362414
C     -1.4327324211     2.8854884431     -1.8069686228
C     -2.2675766606     1.7762711631     -1.9826775427
C     -0.3195851582     1.3536731051     -3.22919913
C     -1.7052188855     0.9472131606     -3.0743021169


