54

 C     1.5945682566     -0.0572908191     3.6232388016
C     0.7750342133     -1.2027246276     3.4536228643
C     1.3319927278     -2.0979786991     2.4633329652
C     2.5345181587     -0.0996267673     2.5699498318
C     2.4350894216     -1.3661511596     1.8649284212
C     2.4613411015     1.1058945149     1.8018276449
C     0.7451460299     1.0885249338     3.3528707701
C     1.3395363439     1.8821634551     2.3312574583
C     -0.6026178004     -0.7944675173     3.3436494392
C     -0.6080265141     0.6833603592     3.1879541837
C     -1.4539322733     -1.5743225479     2.5937471748
C     0.4519195034     -2.8768730112     1.6550334789
C     -0.9684955934     -2.7298551365     1.8610390954
C     0.9138264722     -3.1974911426     0.3361692071
C     2.7050144503     -1.4416407345     0.4729797172
C     2.083618967     -2.5603884649     -0.2069525036
C     2.7278251714     1.0905109882     0.4068833761
C     2.9519720184     -0.192518728     -0.2800813076
C     2.1907170903     2.1996865883     -0.3097158048
C     0.5330279971     2.6824150751     1.4910321226
C     1.1685778326     3.0474349376     0.2574269639
C     -1.4551819343     1.3328354593     2.232900726
C     -0.9256618024     2.506875935     1.5259719714
C     -2.5053706136     -0.9119912848     1.8022563562
C     -2.5009673062     0.5073104325     1.5980256225
C     -1.8244097594     -2.822647484     0.7214976195
C     -2.802487656     -1.7715840843     0.7287328161
C     -0.0220569445     -3.3637661931     -0.7928927076
C     -1.3760624155     -3.0322378728     -0.6078941351
C     1.9412423236     -2.5517242164     -1.6383541906
C     0.5976166894     -2.9669658013     -1.9891532827
C     2.6940301717     -0.2098015104     -1.6849872782
C     2.2259203818     -1.3963476422     -2.3372716228
C     1.9129750999     2.1279334438     -1.7456330431
C     2.0500343666     0.8912323737     -2.3604884393
C     0.3943663922     3.5591483544     -0.8347529001
C     0.8248877468     2.9550535026     -2.0867617881
C     -1.6545199105     2.9885967909     0.3836055846
C     -0.9876015365     3.5694167806     -0.7523243688
C     -3.0523903291     0.9438214968     0.343358538
C     -2.7005637104     2.1916303864     -0.1618533646
C     -2.9433555578     -1.3050446408     -0.6237712886
C     -2.0157945678     -2.033473346     -1.4751604334
C     -3.1433330635     0.0337777926     -0.8167352946
C     0.0178484295     -1.9250952809     -2.8103122077
C     1.0765500774     -1.0483193209     -3.1759461016
C     0.927530893     0.3472320222     -3.1459004449
C     -1.2787884417     -1.3585338652     -2.4920292332
C     -0.3523324933     2.3668215212     -2.6857967162
C     -1.4820133086     2.9187880107     -1.9953639335
C     -2.5122535004     2.087187389     -1.6290177511
C     -2.5708911137     0.7091910263     -1.9758481165
C     -0.3649988714     0.9723500826     -3.0808112203
C     -1.5026213003     0.0996682264     -2.707483232


