54

 C     1.6152465174     0.1654214635     3.8937918189
C     0.813300445     -1.0445309478     3.719589578
C     1.5536210129     -1.9450129192     2.9823480811
C     2.7191173595     0.0934474335     2.9277056223
C     2.7365435523     -1.2077768363     2.423169887
C     2.6406832783     1.2126342773     2.0190297029
C     0.8324022792     1.2368711887     3.5194865153
C     1.5697928683     2.0435606916     2.5552686902
C     -0.5154386293     -0.6592773909     3.219372651
C     -0.5132140063     0.7769412751     3.1214365027
C     -1.1817215124     -1.4201465254     2.2405564936
C     0.9464270537     -2.6662648327     1.9337241826
C     -0.4833053805     -2.6231850918     1.7344231381
C     2.7288417553     -1.4409198392     1.0377081666
C     1.7758152766     -2.5247432746     0.7702689069
C     2.7007041519     1.0360002363     0.5921856539
C     2.8001033704     -0.3445509817     0.0948722359
C     2.0732961755     2.0632513844     -0.2732386277
C     0.849023421     2.8328945641     1.7277708908
C     1.2872935156     3.0698318103     0.37695963
C     -1.2332729911     1.4696636343     2.1184435498
C     -0.6378334416     2.7228850887     1.6870262452
C     -2.1199685848     -0.7225191653     1.3218597121
C     -2.0813012136     0.7372398049     1.184974545
C     -2.6655189722     -1.4844620262     0.2631292926
C     -0.9292719556     -3.2001835033     0.5435326114
C     -2.2104422818     -2.8294889722     0.0078401775
C     1.2653062562     -2.7940622119     -0.5205177894
C     -0.0240547812     -3.4101815798     -0.5884415121
C     2.3227184541     -0.6347331722     -1.2089549669
C     1.6685800523     -1.8916688744     -1.5556590508
C     1.7250022109     1.7579136377     -1.6780359334
C     1.8637826302     0.3964058453     -2.1069898928
C     0.6933796519     2.524175012     -2.352370662
C     0.160938435     3.6684873603     -0.274479558
C     -1.047146541     3.3093588649     0.5195919519
C     -0.1193171675     3.4495077239     -1.5843084776
C     -2.4747369391     1.372799041     -0.0910235755
C     -1.9926388217     2.6950233113     -0.3723077476
C     -1.5491880186     3.0475141509     -1.7028604248
C     -2.9854218254     -0.8699817041     -1.0324884291
C     -2.7888946123     0.5132354039     -1.2519901975
C     -2.1814359894     -3.0199721996     -1.3914469706
C     -0.8157419513     -3.250194826     -1.7691149745
C     -2.6227400696     -1.8258607566     -2.0370242151
C     0.7991773001     -1.6427359599     -2.6650125083
C     0.9400194211     -0.2295578931     -3.0251905865
C     -0.4460391241     -2.2859794857     -2.765915679
C     -1.6515408382     -1.4475765634     -3.0243420009
C     -0.2363901592     1.8514588544     -3.1905137194
C     -1.6072415274     2.1194520639     -2.7102106148
C     -2.284701714     0.8785826611     -2.5651177587
C     -0.1668654867     0.479307026     -3.4917214452
C     -1.5157318588     -0.1082963061     -3.3067890948


