54

 C     1.4788678052     -0.0386102007     3.7760985615
C     0.6969275985     -1.2166265518     3.5618218155
C     1.3236788681     -1.9848669713     2.5473877134
C     2.6090292064     -0.0353454871     2.9046526309
C     2.4875909976     -1.1834736778     2.076373292
C     2.6724298993     1.2522343981     2.2454659173
C     0.6813771352     1.072151488     3.395966263
C     1.4080162208     1.9269905307     2.497335468
C     -0.6749921408     -0.8134377886     3.3502090898
C     -0.6559676696     0.6549204171     3.0949839144
C     -1.4808137588     -1.6144685928     2.5992847264
C     0.5282681708     -2.7376801575     1.630981954
C     -0.9091516257     -2.7487140989     1.8579514954
C     0.9580245426     -2.8210643481     0.2682704655
C     2.7817302131     -1.115508927     0.6579287016
C     2.0420284621     -1.9607557752     -0.2261014386
C     3.2169920362     1.3252283752     0.9625040327
C     3.2576053549     0.1132667152     0.115727411
C     2.7949558608     2.3776352656     0.1474122876
C     0.7113180701     2.6072432108     1.4570598824
C     1.5529177917     3.0513520656     0.3682398834
C     -1.3587451525     1.2099863934     2.0028483541
C     -0.697508173     2.2643699522     1.182337072
C     -2.5285699107     -1.0200782246     1.7824896236
C     -2.4471802344     0.3849956799     1.4229289093
C     -1.784416343     -2.9836443067     0.7918357127
C     -2.8537390249     -1.9733683256     0.8018771816
C     0.0353187557     -3.0166452751     -0.8048500609
C     -1.3538651473     -3.1081121423     -0.5542235488
C     1.7477822942     -1.5780366363     -1.5675903084
C     0.5156446256     -2.2477841447     -1.9461463179
C     2.9611659891     0.5005005773     -1.249012551
C     2.8291990947     1.9301221162     -1.2571191572
C     2.087508496     -0.2807173011     -2.0797895922
C     0.9931214808     3.2610777969     -0.9244701065
C     1.8182200673     2.5490601032     -1.9452828997
C     -1.2297008357     2.5293197868     -0.1374874097
C     -0.334076532     3.0015527956     -1.1959185778
C     -2.9891347367     0.7366579911     0.1739785041
C     -2.4021347068     1.8375966932     -0.5963342597
C     -3.1937195704     -1.6218120435     -0.5214563785
C     -2.2837647724     -2.3710472096     -1.414053327
C     -3.4564744448     -0.2651972629     -0.7773801404
C     -0.3725888756     -1.6579702447     -2.8217704932
C     -1.8184850144     -1.7635967672     -2.5790925283
C     1.1108446097     0.4013404933     -2.9528563867
C     0.9462599381     1.824379861     -2.796000342
C     -0.3825822703     2.3524088381     -2.5364343303
C     -0.083080969     -0.3147119024     -3.3429335954
C     -2.5922391359     1.5589480707     -1.9708592489
C     -3.1705776253     0.2408370465     -2.085471934
C     -2.3773900878     -0.5009097573     -2.9752277784
C     -1.4965055258     1.6574740116     -2.917180206
C     -1.3194193511     0.3525334672     -3.4989079655


