54

 C     1.5196209231     -0.3218044795     4.4055759373
C     0.7173177534     -1.3884822866     4.1059676593
C     1.2499815291     -2.1583550092     2.9938411592
C     2.6086896422     -0.3261791145     3.3840405287
C     2.411841872     -1.453941149     2.4836845411
C     2.5962629646     0.9283803801     2.8025593906
C     0.7038008572     0.8820318727     4.1998337877
C     1.4218827501     1.693630191     3.3442126691
C     -0.6428783018     -0.9498633187     3.7262867465
C     -0.6572034404     0.4675239689     3.7395691625
C     0.1756350742     -2.4507386839     2.1325330006
C     -1.0055834115     -1.6629123803     2.5504827862
C     0.4101551081     -2.6039960565     0.7609965794
C     2.4942944697     -1.2765428961     1.0737825511
C     1.6896689966     -2.1619133466     0.2541041959
C     2.614488715     1.1454511086     1.3931724775
C     2.6944983483     0.0642041922     0.4849298288
C     0.8171947509     2.3638782239     2.2534099557
C     1.6422893677     2.2045465117     1.0887382847
C     -1.2978600744     1.1447495002     2.6614038554
C     -0.6117559463     2.3079893644     2.0707362372
C     -1.8040758087     -1.0610968686     1.5545946553
C     -2.0958353973     0.3494466825     1.7163456339
C     -0.7340737456     -2.5403151907     -0.1404567973
C     -1.8211615257     -1.6689804605     0.2039491551
C     -0.4538171282     -2.8467216623     -1.5197965603
C     1.8192673181     -2.0553381033     -1.147916466
C     0.910367486     -2.6923875589     -1.9917363584
C     2.3453480806     0.3192918651     -0.9209501931
C     2.220877872     -0.7879685011     -1.7764667415
C     1.1400149897     2.4087289068     -0.2161263172
C     1.6505884518     1.564553149     -1.3190907109
C     -1.0547429747     2.7951464852     0.8402965565
C     -0.1583573638     2.971514488     -0.2974050701
C     -2.6617554346     1.0131303059     0.5889547998
C     -2.2784239487     2.322235461     0.2849062059
C     -2.5521551293     -1.0113134331     -0.8881207895
C     -2.9621689835     0.3244206612     -0.6874058301
C     -1.310109617     -2.419920767     -2.543662279
C     -2.3078025266     -1.4339426459     -2.2738393555
C     0.8496495931     -1.9617953438     -3.2539436584
C     1.5848727292     -0.7291961987     -3.0754221027
C     -0.4824404696     -1.9329417994     -3.6778182927
C     0.9962564064     1.614626077     -2.5635638342
C     0.9927408673     0.4873097519     -3.4960124976
C     -0.9249239512     2.834873274     -1.5184946805
C     -2.2408501477     2.4461555707     -1.1629438609
C     -2.8183942141     1.2988649422     -1.7615731248
C     -0.3234133587     2.2741637183     -2.6733837636
C     -2.2703371374     -0.4716657431     -3.3349635337
C     -1.0518390295     -0.7317016414     -4.1388276635
C     -0.2948951008     0.4511189331     -4.1372095629
C     -2.3398568966     0.9086191042     -3.0392012961
C     -1.1208958327     1.5134299386     -3.5425769905


