54

 C     1.2285430523     -0.1815616903     3.7555733758
C     2.3099913314     -0.3744396542     2.936675169
C     2.1171684658     -1.6478965641     2.2082398216
C     0.3444087526     -1.3796314424     3.6173802993
C     0.8502263022     -2.2051460491     2.5345299558
C     -0.9421762226     -0.9188383369     3.5530846847
C     0.407183088     1.0085875776     3.5978371166
C     -0.9477943757     0.568143229     3.5655903064
C     0.8043722191     1.9838812512     2.6636781095
C     2.7424080331     0.6103379871     1.9776506096
C     2.0434117945     1.8234656786     1.8976436047
C     2.5339653477     -1.4656666648     0.8914062951
C     3.0192447783     -0.0857308684     0.7364943297
C     1.8269807975     -2.1252054405     -0.1633037442
C     -0.0185509734     -2.6778936676     1.4857871575
C     0.5507625125     -2.7799639508     0.1346930895
C     -1.8642359112     -1.3975986005     2.5740786675
C     -1.4687668686     -2.4173650667     1.6290957105
C     -1.8395143579     0.9658829062     2.5610786047
C     -2.5629557294     -0.2331796396     2.1003500975
C     -0.1697232239     2.5351781854     1.7436876927
C     -1.478024531     1.9794181839     1.5971111942
C     1.8839185642     2.4591744891     0.6082077911
C     0.5489741085     2.9990316936     0.5736710831
C     2.9728523643     0.551744351     -0.5162458459
C     2.484645814     1.9449459661     -0.5928143214
C     2.1068355785     -1.6102131769     -1.4574688722
C     2.7468305149     -0.3346217775     -1.6359679201
C     1.1546296934     -1.791061438     -2.5559873567
C     -0.3600321682     -2.9546148217     -0.9715157962
C     -0.0807043282     -2.3497004104     -2.2902431877
C     -2.2997267238     -2.519609581     0.4741966413
C     -1.7419110412     -2.9251067838     -0.776843926
C     -3.1767695826     -0.2538993264     0.8537852768
C     -3.2429013657     -1.4774034441     0.1662949227
C     -2.0840163564     1.9116915691     0.2421524574
C     -2.9425315184     0.8342543905     -0.1082968417
C     -0.0984459538     3.1571303756     -0.649408574
C     -1.4192306739     2.5335110382     -0.8520864131
C     1.9206837931     2.4006834621     -1.8362774956
C     0.6517298704     3.0438516658     -1.8274377639
C     2.2826167389     0.2140827848     -2.8768964058
C     1.2233952611     -0.6691764141     -3.4130439337
C     1.9035616946     1.5288085626     -2.9989265438
C     -1.4459870037     1.9903052631     -2.1791081752
C     -0.2104153553     2.3792813872     -2.8221647499
C     0.0859148649     0.1190645755     -3.6931082813
C     0.530011998     1.5038957219     -3.5679881863
C     -1.2750526716     -1.6605078088     -2.735636465
C     -2.3094555939     -2.082381983     -1.8491725148
C     -3.1591236636     -1.1711708177     -1.2570992206
C     -2.9166083396     0.2406964672     -1.4235971892
C     -1.2062247285     -0.2946586607     -3.1906812363
C     -2.0143881114     0.6971953073     -2.4386530939


