54

 C     1.4852931239     -0.0025934612     3.9614332669
C     0.6763368757     -1.202540456     3.752599497
C     1.3754302369     -2.1188798801     2.9293638564
C     2.5255278911     -0.078318351     2.9934887736
C     2.5535101195     -1.3755445949     2.4153375964
C     2.4790303201     1.0411726198     2.0844876627
C     0.6901527943     1.1085332216     3.5723201851
C     1.3589263432     1.8479058594     2.5057334341
C     -0.6172756798     -0.8170842143     3.3131323492
C     -0.612634819     0.6636548209     3.2322149923
C     -1.3121030155     -1.566963932     2.3151913777
C     0.7735926767     -2.7746149197     1.8449144445
C     -0.6214566509     -2.6049570384     1.5346299116
C     2.660627831     -1.5798593371     1.0324159752
C     1.7205004769     -2.6573713801     0.7242292667
C     2.7405006299     0.8652804587     0.6778753028
C     2.8112476398     -0.4899064224     0.0903617646
C     2.2903673698     1.9180720941     -0.1349008411
C     0.6396049261     2.6404055406     1.5823692036
C     1.3554634026     2.9045822422     0.3669943097
C     -1.3987853632     1.3728727503     2.2587094945
C     -0.8193047511     2.5160404539     1.523993975
C     -2.3789650891     -0.8609431223     1.6808955284
C     -2.4240104247     0.6213770546     1.6546754965
C     -2.9097713536     -1.3197521388     0.4785601817
C     -1.0563962054     -2.8974256675     0.1560944841
C     -2.2487894838     -2.2759674032     -0.3407823799
C     1.3362880032     -2.8639397027     -0.5502299429
C     -0.0588378165     -3.1956221125     -0.8465980819
C     2.4092263986     -0.715358993     -1.2903422318
C     1.8592914708     -2.0143122058     -1.620734148
C     2.0444106286     1.7424512373     -1.5704683112
C     2.0236886392     0.4251779207     -2.1534767754
C     0.6693608117     3.4167202223     -0.7563066598
C     1.1328859824     2.7302947883     -1.9777858417
C     -1.4714216624     2.9244649417     0.3197632005
C     -0.7105800951     3.4646503049     -0.7697373
C     -3.0015489937     1.0166086803     0.3915780203
C     -3.2910916501     -0.1807428985     -0.3415383715
C     -2.5012940337     2.1130279988     -0.2880566805
C     -2.3628663925     -1.7832491036     -1.7125012749
C     -2.9019548285     -0.4066434346     -1.6636308006
C     -0.2519253233     -2.865583182     -2.1980738204
C     0.9492657242     -2.1668558346     -2.6773677952
C     -1.3743131408     -2.0854574415     -2.6377149003
C     1.0754105073     0.2335360506     -3.2158044913
C     0.5562188482     -1.0786078398     -3.4764475605
C     -0.8672011069     -1.0177062128     -3.4875985154
C     -0.0096238866     2.3996221513     -2.7691674452
C     -1.1675831991     2.8526945036     -2.0335574496
C     -2.2206490818     1.9814620566     -1.7399471265
C     -2.2987574522     0.685331831     -2.4095750618
C     -0.0423373744     1.1564022182     -3.3927660789
C     -1.2606807977     0.3544592488     -3.3382536946


