54

 C     1.5378248326     -0.1885024099     4.368223747
C     0.6848313633     -1.3288490858     4.5213389024
C     1.2122467146     -2.402601222     3.7942523699
C     2.5741935673     -0.5532567718     3.3517481581
C     2.3765908136     -1.8949293126     3.0048989128
C     2.5488086506     0.4264400938     2.3052992714
C     0.7776692163     0.8159882624     3.7668717485
C     1.4621309765     1.3586580718     2.6058364941
C     -0.6515879289     -1.0084181998     3.9852067792
C     -0.626272584     0.361891936     3.5691475861
C     0.2383232905     -2.8370521661     2.8495712414
C     -0.9685561386     -1.9710069359     2.986266474
C     2.1496542094     -2.228521561     1.627978329
C     0.8209492797     -2.861755061     1.5613058853
C     2.6737160215     0.0675340767     0.9432820412
C     2.4558413324     -1.3282714586     0.5830818822
C     2.3167065649     1.0792663224     -0.0352941256
C     0.7532623751     1.9965488855     1.5918754582
C     1.3691844795     2.1062316698     0.2744907453
C     -1.2964193483     0.7754546011     2.4148056364
C     -0.7107828015     1.8945517088     1.6273628295
C     -1.6536070674     -1.5855082855     1.818749742
C     -2.0404542034     -0.2011891333     1.6307954218
C     0.0183163372     -2.7395763376     0.3892460476
C     -1.3589647064     -2.3116810494     0.5672494638
C     1.9017557823     -1.6172568484     -0.7421382768
C     0.683241981     -2.4274432609     -0.8500945728
C     2.4475012837     0.7021702619     -1.4108699656
C     2.1530120705     -0.697480758     -1.761647583
C     2.0080625904     1.5373129179     -2.4287540881
C     0.6607433817     2.8087128626     -0.8032823494
C     1.0945461944     2.6287018872     -2.1639885081
C     -1.3971815029     2.3499606169     0.5353640123
C     -0.7432565679     3.0425984244     -0.5851045545
C     -2.658342946     0.2215048151     0.3817200368
C     -2.5457116976     1.619456379     -0.0032949273
C     -2.0777867384     -1.962644949     -0.5725349774
C     -2.8391105049     -0.7077335259     -0.6605030102
C     -0.1227254762     -2.2718656195     -2.0158760095
C     -1.5157567102     -2.1703894712     -1.8522747502
C     1.4048881179     -0.6526114938     -3.0162456593
C     1.4312223354     0.7172371609     -3.4925682943
C     0.2353905497     -1.3903529388     -3.1338100058
C     0.1375457334     2.6158399121     -3.2407353126
C     0.3055643039     1.3477004916     -3.9858126957
C     -1.6596418868     3.0182700685     -1.6606781617
C     -2.7168490068     2.0358249326     -1.3181582587
C     -1.2245180742     2.7426287784     -2.9653877097
C     -2.8666306959     -0.2861377244     -2.0626504946
C     -2.0356735085     -1.1799451961     -2.7911104294
C     -0.9918505619     -0.7330967636     -3.6392165064
C     -0.9694506325     0.6470177322     -4.0158329589
C     -2.8239126396     1.0974239362     -2.405150747
C     -1.9386804204     1.5231507142     -3.4429542936


