54

 C     1.64742701     -0.2779063097     4.0763499822
C     0.755554167     -1.4218420991     4.1017221148
C     1.1438967174     -2.2873153036     3.0707811449
C     2.5284967684     -0.462704855     2.9523100425
C     2.2833857385     -1.7216634087     2.335384434
C     2.5297931435     0.7175540055     2.0858336905
C     0.8583367006     0.8199249269     3.6561000191
C     1.4888912896     1.5783657729     2.5813162082
C     -0.5646058979     -0.9590978243     3.6777231067
C     -0.5376605736     0.4558354393     3.492907724
C     -0.0191256995     -2.6958566695     2.2873662401
C     -1.1110990442     -1.7871089952     2.6255694419
C     0.1765169599     -3.0142403036     0.980229019
C     2.382489078     -1.8826694641     0.9153139022
C     1.4678598791     -2.7984886256     0.306585169
C     2.7547833415     0.6045168201     0.6976851626
C     2.8226583168     -0.7426203524     0.0819487223
C     2.2502639396     1.6935466105     -0.0840171592
C     0.6969978914     2.3370819165     1.7123798681
C     1.2613299857     2.5806573473     0.4191421555
C     -1.3107753936     1.063163885     2.479789401
C     -0.7757951401     2.2550645634     1.8086790408
C     -1.9103195124     -1.2246091537     1.6107561904
C     -2.2175924592     0.2082517046     1.7024587431
C     -0.8660517444     -2.7744355366     -0.0037927724
C     -1.9036207205     -1.8478554704     0.2643474397
C     1.2092263466     -2.7832094764     -1.0845152774
C     -0.2527772478     -2.8664223128     -1.2962765485
C     2.6652500333     -0.8366881578     -1.3108220365
C     1.9630943407     -1.9436966369     -1.9279863626
C     2.0584146098     1.5812920729     -1.5248056118
C     2.3730890003     0.3564460973     -2.1527534965
C     0.4459175099     3.0066416666     -0.6974971545
C     0.9368864488     2.355668776     -1.9226367641
C     -1.5296098228     2.8033652633     0.7666503589
C     -0.8972876389     3.2507739554     -0.5116398892
C     -2.9334760822     0.8153310276     0.6601170436
C     -2.7669879332     2.196260301     0.3906312222
C     -2.4855024273     -1.1452171719     -0.882399116
C     -3.1235717935     0.1322741597     -0.6526879104
C     -0.8440833546     -2.2609540066     -2.4018981039
C     -1.9767827597     -1.3808389189     -2.1905410055
C     1.3542299046     -1.4682547158     -3.1339677765
C     1.615404795     -0.026761773     -3.2623026711
C     0.0078533507     -1.664541658     -3.3975468686
C     0.0247197251     1.8790655019     -2.9463407142
C     -1.8462951908     -0.2571287817     -3.155363536
C     0.3993994101     0.6600868674     -3.6209339875
C     -0.5848623654     -0.375869395     -3.7671063666
C     -1.804315801     2.9346211765     -1.5923098958
C     -2.9568020662     2.3781642603     -1.029087731
C     -3.1986266813     1.1137250378     -1.6613343764
C     -1.3732189977     2.1170916748     -2.7256099188
C     -2.311320054     1.0132265556     -2.8039045259


