54

 C     1.5076726403     -0.2851892801     4.1094085282
C     0.6743217453     -1.3741865791     4.2371921796
C     1.1743661628     -2.4461337545     3.3689680553
C     2.553271972     -0.5881961969     3.1340548399
C     2.3916506602     -1.9824161676     2.7215603435
C     2.518098781     0.4186783182     2.1582654861
C     0.7353718207     0.8523813418     3.6254240155
C     1.4126085693     1.3743386359     2.5115902262
C     -0.6552168715     -0.9902613163     3.7857977393
C     -0.6267843497     0.4344579141     3.4309523962
C     0.0850447052     -2.8776743739     2.5730645124
C     -1.0368522572     -1.8990887207     2.7834515004
C     0.3334354242     -3.3189278697     1.2628176006
C     2.5727943605     -2.2881081563     1.363276942
C     1.635405877     -3.1542513988     0.7300182367
C     2.7077577436     0.1312124708     0.7539047848
C     2.8240732768     -1.2220993332     0.3726970831
C     2.2519764025     1.1044063021     -0.2385608766
C     0.7006153373     1.9993873701     1.484490486
C     1.3907361477     2.1724522484     0.1960302253
C     -1.3352065151     0.8906105687     2.3035230907
C     -0.7361043849     1.9194638838     1.4566508359
C     -1.8393654735     -1.4751343431     1.6780697013
C     -2.1798264685     -0.0632410378     1.5851701483
C     -0.614915913     -3.0331036206     0.1843543093
C     -1.7452054557     -2.2186185927     0.4126405731
C     1.4853282462     -2.7746169001     -0.6650021636
C     2.2406867851     -1.610079132     -0.910469988
C     0.1261644574     -2.8004085944     -1.0393420846
C     2.1502893     0.7353208384     -1.6485577861
C     1.8128169046     -0.6688713158     -1.8800832256
C     1.6923366523     1.6911119063     -2.5747200853
C     0.782024055     3.0035270288     -0.7480770289
C     1.1664901092     2.9414635008     -2.097169071
C     -1.4365269811     2.4046458333     0.2676019196
C     -0.7091697815     3.1897832905     -0.7046874166
C     -2.8461041518     0.4023890304     0.4239823057
C     -2.5802647085     1.7084504704     -0.176782705
C     -2.3645037426     -1.6646430855     -0.759291548
C     -3.1151584385     -0.4765779043     -0.6446598556
C     -0.3310207001     -1.923049035     -2.0810071851
C     0.61853865     -0.9601776284     -2.6590737964
C     -1.7023402082     -1.5893719079     -2.0464022406
C     0.8015324852     1.2821324712     -3.6682248165
C     0.1164882329     0.0631411318     -3.5230170695
C     0.0002226672     3.2931474258     -2.8977283187
C     -1.1671884784     3.353163255     -2.0202574315
C     -0.1986154227     2.3231281114     -3.8549347172
C     -2.8913979675     1.6525558592     -1.619293287
C     -3.0825646369     0.2674506491     -1.8928932334
C     -2.2080941848     -0.4206520604     -2.7692131812
C     -1.3607004843     0.3329893061     -3.5981270648
C     -2.169766032     2.4250329206     -2.5432634238
C     -1.5292265735     1.738256232     -3.6541184644


