54

 C     3.934838897     -0.6747069656     -0.0161149795
C     3.9348388209     0.674706716     -0.0161193892
C     3.4568872107     1.1349726225     -1.3649117915
C     3.4568872928     -1.1349817154     -1.3649044182
C     2.8876475192     -0.0000067462     -2.0502102693
C     2.7130940864     -2.2482379511     -1.1500774728
C     3.219887268     -1.4413101221     1.0044663352
C     2.6741498468     -2.5482500921     0.3152253145
C     2.4017884311     -0.7447384207     1.9782961032
C     3.2198871714     1.441316633     1.004456783
C     2.4017884191     0.7447515029     1.9782912007
C     2.7130939875     2.248230159     -1.1500920894
C     2.6741496478     2.5482518714     0.3152085546
C     1.3890885231     2.3785251595     -1.665840296
C     1.494086334     -0.000007878     -2.4271909154
C     0.7354895886     1.264278189     -2.2987775016
C     1.3890884786     -2.3785361916     -1.66582499
C     0.7354895467     -1.2642931013     -2.2987693715
C     1.4177670114     -3.0878616248     0.6000254308
C     0.6788762364     -3.1661880314     -0.675707534
C     1.1990978681     -1.4130061932     2.3807077039
C     0.7262983841     -2.605339675     1.7295062919
C     0.000441827     -0.687266177     2.7923428237
C     1.1990978441     1.4130218933     2.380698369
C     0.0004418647     0.687284606     2.7923382528
C     1.4177669783     3.0878651552     0.6000050654
C     0.6788762907     3.166183389     -0.6757282024
C     0.7262984253     2.6053508753     1.7294889691
C     -0.6790102167     3.1662223332     -0.6755046065
C     -0.7363207407     1.2643080805     -2.2985735724
C     -1.3896560393     2.378649846     -1.6654014471
C     -0.7363208118     -1.2643229143     -2.298565449
C     -1.4949118403     -0.0000078193     -2.4265269404
C     -0.6790104623     -3.1662269036     -0.6754839388
C     -1.3896562204     -2.378660734     -1.6653861256
C     -0.7254945592     -2.6051894033     1.7297122536
C     -1.1983675225     -1.4130770984     2.3813202813
C     -1.4174277749     -3.0877807546     0.6004928372
C     -2.4012491081     -0.7447670928     1.9794983444
C     -1.1983673669     1.4130929048     2.3813109235
C     -0.7254943587     2.6052006909     1.7296949311
C     -1.4174274468     3.0877844553     0.6004724663
C     -2.401249039     0.7447803929     1.9794934655
C     -2.7134034781     2.2482443397     -1.1489926524
C     -2.6739768892     2.5481714637     0.3162507081
C     -3.2197427482     1.4413230311     1.0060054122
C     -2.8882448809     -0.0000066165     -2.0488715175
C     -3.4573640071     1.1349620726     -1.3632409388
C     -3.9349799763     0.6747071737     -0.0142838475
C     -2.713403768     -2.24825188     -1.1489780373
C     -2.6739773095     -2.5481693896     0.3162674835
C     -3.2197429826     -1.4413161878     1.0060149663
C     -3.4573641431     -1.1349708172     -1.3632335459
C     -3.9349801096     -0.6747070595     -0.0142794305


