54

 C     1.5915324494     0.0578773898     3.8100827273
C     0.7959545258     -1.0937454693     3.6387368313
C     1.3892808509     -1.8858457932     2.5929583713
C     2.6157794319     0.0527215467     2.787775347
C     2.5404025105     -1.1585170071     2.0526630694
C     2.632684108     1.3197762542     2.1066954802
C     0.8009057033     1.2182724096     3.5605122571
C     1.4985758112     2.1084818319     2.6609244929
C     -0.5548594503     -0.6248851679     3.3662882014
C     -0.55850854     0.8311459942     3.2929027716
C     -1.3604404933     -1.3318837596     2.4889473677
C     0.5887180217     -2.6880261355     1.7215688294
C     -0.8346549767     -2.5034115235     1.7681616606
C     1.1522102633     -3.0202251466     0.4397275191
C     2.7883295533     -1.1500586345     0.6292142768
C     2.1996636659     -2.1708723545     -0.1415801609
C     2.8817493956     1.3567904856     0.7378950472
C     3.0077774431     0.128740319     -0.0190514723
C     2.2115891501     2.3354848638     -0.1113987179
C     0.7499846392     2.8847057534     1.8170073797
C     1.2181385501     3.1660953061     0.4379770492
C     -1.3219257477     1.5215680322     2.2992645416
C     -0.7095366355     2.7050119751     1.7431366117
C     -2.2787765354     -0.6543974864     1.6217118461
C     -2.264351492     0.7690841884     1.4516575041
C     -1.6494267922     -2.7018809703     0.6094540775
C     -2.5718484305     -1.5712090149     0.52715628
C     0.3140163384     -3.4114730361     -0.6144540567
C     -1.0870199043     -3.2086714497     -0.5792486112
C     1.901270832     -1.9873047572     -1.552870056
C     0.8120907476     -2.8347547062     -1.8655877032
C     2.5158330687     0.3781552485     -1.3418936241
C     2.0072722027     1.7454145605     -1.4024538717
C     1.956851714     -0.6709877077     -2.1415076639
C     0.8721631166     2.0723735771     -2.2137055426
C     0.0904208367     3.4660711094     -0.3425768228
C     -1.084566628     3.128756081     0.4626462357
C     -0.1142344558     2.9511886843     -1.6406503604
C     -2.6573333815     1.2786897306     0.1335585899
C     -2.0405566658     2.4755082473     -0.3533050209
C     -1.529188145     2.5570038635     -1.7206864755
C     -2.9949607454     -1.0972786517     -0.690463601
C     -3.0956566438     0.3500931622     -0.8888595334
C     -1.4932668378     -2.6600576313     -1.8859567169
C     -0.2631688039     -2.4255176982     -2.6742324136
C     -2.509492821     -1.7151676399     -1.9347327574
C     0.954424538     -0.3230318733     -3.097652038
C     0.4117517873     1.0643367116     -3.1429309921
C     -0.1174112386     -1.2234874007     -3.4159539375
C     -1.9294101933     1.6397682241     -2.6713822547
C     -2.8273180338     0.6051391572     -2.2472727865
C     -2.4309418372     -0.6475352266     -2.9015743654
C     -0.9327293008     1.0031530191     -3.5204110904
C     -1.2877865457     -0.411181474     -3.6462317593


