54

 C     1.2524978685     0.059571297     3.8982147596
C     2.4393804105     -0.285560311     3.2907431124
C     2.31624087     -1.6630419642     2.6922539326
C     0.3736230383     -1.1254271449     3.7637251995
C     0.9737510003     -2.0672502567     2.8255061869
C     -0.8952166196     -0.6954269354     3.5505321917
C     0.4882833517     1.1927960578     3.4060720291
C     -0.8810566249     0.7769130028     3.4603806047
C     0.9228244593     1.9076244969     2.2165765775
C     3.0233133264     0.5425057618     2.3214824042
C     2.2400684339     1.5865475122     1.7277631218
C     2.9670539602     -1.6494106194     1.4328259658
C     3.4579314909     -0.3154444213     1.2250167344
C     2.33386128     -2.2944505804     0.3469006434
C     0.2056856801     -2.4988699682     1.645586136
C     0.9678625146     -2.7346087217     0.4695530265
C     -1.7225672526     -1.185504503     2.4666707825
C     -1.191895682     -2.0622359655     1.4652939946
C     -1.8227217598     1.1553586909     2.5259329507
C     -2.5197106149     -0.0736894682     2.0784137173
C     -0.0943085477     2.3808337048     1.2367978036
C     -1.5112643932     2.1359646056     1.5159194932
C     0.2834337867     2.6034687713     -0.1591569978
C     2.4777150991     1.5278480686     0.2920206364
C     3.2341817848     0.3280293953     -0.0040347187
C     1.5675447833     2.0663792146     -0.6435788955
C     2.4992508382     -1.7854554847     -0.9943529107
C     2.9285491627     -0.434706797     -1.1787987346
C     0.3718327144     -2.6996282136     -0.8669015487
C     1.3959951512     -2.2709266215     -1.795634088
C     -1.7842398759     -1.9824211698     0.1027558571
C     -0.9832845902     -2.3613359091     -1.0783955552
C     -3.1843653221     -0.0851598716     0.8678342209
C     -2.8669612531     -1.0988335718     -0.1284412641
C     -2.4748182686     2.2421265653     0.4705873849
C     -3.3997594635     1.142223746     0.2136002175
C     -0.7347398662     2.7941662861     -1.1511207209
C     -2.0898004675     2.6926292284     -0.8047318303
C     -0.604787854     2.2591384492     -2.5272991965
C     1.6674523869     1.5694238997     -1.9799477744
C     2.3463073896     0.3091580405     -2.2532990582
C     0.5930413606     1.7184346052     -2.9574376807
C     1.046325521     -1.6459121523     -2.9943114323
C     1.6109700444     -0.344183792     -3.2660312417
C     0.5769015266     0.5321770272     -3.7800984048
C     -1.3325080115     -1.825501764     -2.389318455
C     -0.3347867968     -1.5554711909     -3.3361411739
C     -0.6050278009     -0.2063932052     -3.8940208274
C     -3.1533103112     -0.4846454061     -1.4397638311
C     -3.5023308689     0.9053004163     -1.2034442001
C     -2.7843750816     1.9080673006     -1.859606705
C     -1.8775300396     1.6122805406     -2.8945223992
C     -2.3740759747     -0.7914774002     -2.5333702757
C     -1.8364358936     0.2740067248     -3.3951997443


