54

 C     1.1530762808     -0.0182377923     3.9440651579
C     2.230414168     -0.1916136854     3.1067427293
C     2.1176058133     -1.499706285     2.4288290246
C     0.2948531271     -1.2365789198     3.7621531825
C     0.8475444208     -2.05216268     2.6935852831
C     -1.0035378281     -0.8373064042     3.7269285861
C     0.3113329397     1.1478867483     3.8433523104
C     -1.0393224009     0.6584791095     3.9035048713
C     0.6208702068     2.1196582861     2.8373299078
C     2.5623576786     0.7658758927     2.0826779948
C     1.7694060618     1.9170981907     1.9679291498
C     2.6023910467     -1.371512965     1.1178812534
C     2.9107213507     0.0246156543     0.87882461
C     2.0505387647     -2.1738129659     0.0856752312
C     0.0262200183     -2.459321969     1.5688642589
C     0.7159184675     -2.7431482124     0.3153778957
C     -1.8558027459     -1.1874629506     2.6058291294
C     -1.3552919034     -1.9877096604     1.5107458977
C     -2.011424494     1.1312633605     3.0537612586
C     -2.5842419814     -0.0091297717     2.3147125722
C     -0.4334222961     2.6446707942     1.9792805016
C     -1.7441892662     2.152103602     2.073958104
C     1.4553526867     2.4097297566     0.6302300261
C     0.1085745093     2.8830009215     0.6449101768
C     2.7528019024     0.5597303097     -0.4267930162
C     2.0143892863     1.8400476519     -0.5569841716
C     2.4222151716     -1.7706460932     -1.2271757765
C     2.709248015     -0.3798185971     -1.4852337074
C     1.7077960813     -2.265999741     -2.3564916698
C     -0.0819366088     -2.9729101419     -0.8432434035
C     0.480541117     -2.8680723573     -2.1568748796
C     -1.9819735849     -1.7828380207     0.1966668434
C     -1.4122728467     -2.4223276664     -0.9178553405
C     -2.8704778458     0.3987992767     1.0051543604
C     -2.4252445992     1.7699758633     0.8452333872
C     -2.7521198781     -0.5421187353     -0.062261296
C     -0.6851905846     2.8320782684     -0.5387204891
C     -2.0179370961     2.209260873     -0.4314019985
C     1.3451741427     2.1116806614     -1.7700629687
C     0.0224039009     2.6720707687     -1.7651270429
C     2.1128561131     -0.0454160022     -2.7947456023
C     1.5425923158     -1.2002307394     -3.3554171913
C     1.4435985561     1.2030017521     -2.9373368439
C     -0.4882087088     -2.2211973302     -3.0628004007
C     -1.6357680462     -1.9440670446     -2.3041364341
C     0.1767343133     -1.2029443541     -3.8424310496
C     -2.7945758468     0.0206646388     -1.3502469213
C     -2.4936561705     1.4260082455     -1.5313354972
C     -2.3049343525     -0.7110118025     -2.5221614192
C     -0.6479644236     2.1571311953     -2.932914298
C     0.2462123477     1.2549512904     -3.6662639782
C     -0.47439847     0.039893203     -4.0218963623
C     -1.8773285229     1.5399072191     -2.8139912823
C     -1.7825203025     0.207719334     -3.4503006634


