54

 C     1.5032290738     -0.3779390629     4.4239316588
C     0.6526191793     -1.3892935955     4.0783064044
C     1.163895656     -2.1689549155     2.9528164243
C     2.5951778491     -0.4109137701     3.4313223545
C     2.3468647891     -1.5105933545     2.4705097834
C     2.6741724611     0.8668581423     2.9036587831
C     0.7374814381     0.8799026092     4.2197616046
C     1.5153313319     1.6771843259     3.4113571655
C     -0.6718138578     -0.879869196     3.692910992
C     -0.6203169518     0.5513390883     3.7188725464
C     0.0882713958     -2.3807357118     2.0757980777
C     -1.0738621223     -1.5624172191     2.5275532549
C     0.3135147335     -2.4603435443     0.6980695365
C     2.4767674222     -1.2983778016     1.0653117074
C     1.5824165285     -2.0284166284     0.167110631
C     2.77738584     1.1246200225     1.514495145
C     2.8552180797     0.0446056031     0.5798346271
C     0.9793556751     2.3919867146     2.3042004834
C     1.8732039769     2.2235645677     1.1811766344
C     -1.2009112978     1.2680101666     2.6348243
C     -0.4279859768     2.3799719114     2.0369986353
C     -1.8635307697     -0.9102131709     1.5567459143
C     -2.0547042646     0.5163769163     1.6951506389
C     -0.8772131487     -2.3881017103     -0.1496526092
C     -1.9640140242     -1.5448587877     0.2332444036
C     -0.6956816697     -2.7281000841     -1.5141683108
C     1.6399384883     -1.8130818906     -1.272992454
C     0.6531973541     -2.4420342674     -2.1097243063
C     2.5866439846     0.3803837745     -0.7704314136
C     2.2185716522     -0.614638026     -1.7546205484
C     1.4416404626     2.4565736268     -0.1529361682
C     1.9856466487     1.6131129825     -1.1684988356
C     -0.7958551405     2.8444894706     0.7548086255
C     0.1256677564     2.9575487964     -0.3350077495
C     -2.5562139268     1.1790954652     0.5370580425
C     -2.0482857673     2.4475240979     0.1721934891
C     -2.7577194838     -0.9353075576     -0.8371063531
C     -2.9592749927     0.4756038987     -0.6795390105
C     -1.696900614     -2.5041796368     -2.4557237596
C     -2.6731994906     -1.4581998924     -2.1644437666
C     0.421828127     -1.9989888618     -3.4152501955
C     -1.0139223627     -2.1847229395     -3.7098401319
C     1.6312154981     0.0560815955     -2.8908359959
C     1.2983843939     1.3907345843     -2.4294228992
C     0.7829577459     -0.6326068822     -3.7654940271
C     -0.6114850896     2.6755704666     -1.5793516094
C     -1.9757500345     2.5019930134     -1.2514142369
C     -2.6714060421     1.3559835154     -1.7843920568
C     -0.0104921837     1.9104636612     -2.6514785132
C     -2.5595407467     -0.5301840559     -3.2793883376
C     -1.5127212939     -1.0004214611     -4.1737346731
C     -0.4349207983     0.0164914064     -4.210032915
C     -2.2934143545     0.8262560979     -3.0162207896
C     -0.8994611369     1.1411674829     -3.5163201772


