54

 C     1.4023861437     0.1018481451     4.131571259
C     0.600330769     -1.0692792802     3.8801132256
C     1.3316817286     -1.9151757716     3.047051532
C     2.531785025     0.0716394329     3.1792691618
C     2.5422291236     -1.1694709041     2.5660330369
C     2.5061530559     1.2439308306     2.3380020865
C     0.6443057334     1.20602918     3.7469338872
C     1.3926486202     2.0492950094     2.8330151882
C     -0.7199149103     -0.6425300297     3.3845143594
C     -0.693814911     0.7942475845     3.3250604377
C     -1.3905733644     -1.3800786228     2.3629630862
C     0.7520668111     -2.5649503596     1.9450996163
C     -0.6633323998     -2.4978313555     1.7083801171
C     2.5714553544     -1.3114436102     1.1504200802
C     1.6287129615     -2.3587349109     0.801196919
C     2.7101215677     1.1337475071     0.9118301939
C     2.704441294     -0.1906311828     0.2693795443
C     2.206294623     2.2320025525     0.1401418492
C     0.6849770022     2.8611303606     1.9628437695
C     1.2801313031     3.1320351362     0.716695399
C     -1.3859615239     1.5134250976     2.2855985674
C     -0.7546148278     2.6544028921     1.6965089557
C     -2.320030377     -0.6641161752     1.546626631
C     -2.2914077361     0.7620401784     1.4727453757
C     -2.7610251472     -1.1607254898     0.2539411609
C     -1.067519063     -2.9185104075     0.4351656209
C     -2.2615495728     -2.3700772653     -0.2312376141
C     1.1936260877     -2.5547532645     -0.5057400896
C     -0.1095933224     -3.1675321906     -0.6180328352
C     2.2480344999     -0.3630817887     -1.1187415815
C     1.6620323098     -1.6230802126     -1.5451127926
C     1.8286239111     2.0752418302     -1.2514749971
C     1.9402962499     0.8479335732     -1.9227905878
C     0.2397797411     3.4046685532     -0.2570908594
C     -1.0064197756     2.9908807147     0.3193992671
C     0.6383460179     2.9415852798     -1.5026612428
C     -2.6035870739     1.1340912767     0.1023818054
C     -2.9475212484     -0.0487457726     -0.6482616456
C     -1.9333680462     2.2331091648     -0.5114093249
C     -2.7041405387     -0.1612366973     -2.0661400795
C     -2.1250169214     -2.5358797217     -1.6276872048
C     -0.7915756695     -3.110257085     -1.8586520538
C     -2.3444894669     -1.4894531256     -2.565876794
C     0.9805797357     -1.6983923945     -2.8225268006
C     -0.2335932395     -2.4958389831     -2.9559246041
C     -1.2683041578     -1.6178321405     -3.5378362049
C     1.1572199006     0.7214503578     -3.1495734716
C     0.8108385241     -0.5513982462     -3.6296471697
C     -0.6343339173     -0.4984964131     -4.0312960177
C     -0.3395907571     2.5176543829     -2.4099708377
C     -1.6601772182     2.1218531668     -1.9089600245
C     -2.1056657536     0.9856170248     -2.7057239304
C     0.0345537678     1.6115527534     -3.4022654983
C     -1.1065309222     0.7881514158     -3.7282478709


