54

 C     1.5601609191     0.0001510008     3.8324454759
C     0.7310359329     -1.1879729698     3.6094675523
C     1.3557671229     -1.9690306628     2.6037569074
C     2.664251392     0.0002124592     3.0268438166
C     2.6230189933     -1.2738019265     2.2638645473
C     2.6226758005     1.2748160599     2.2648206985
C     0.7309058108     1.1864953604     3.6113821144
C     1.3549202698     1.9684068166     2.6047149453
C     -0.6069574406     -0.7446997779     3.4580957926
C     -0.6068155979     0.7423304134     3.4582210601
C     -1.4187986204     -1.4096947563     2.5338461007
C     0.5645000689     -2.590467787     1.5832056105
C     -0.8564453997     -2.4188538073     1.6813031788
C     1.1412392464     -2.709986942     0.2219988009
C     3.0677089425     -1.2592416194     0.970053841
C     2.3464537633     -1.9971238125     -0.0725680245
C     3.0667695613     1.2603803542     0.9705196143
C     3.5459431908     0.000545719     0.3838434388
C     2.3454652582     1.9985255715     -0.0719205883
C     0.5636648118     2.5900763436     1.5847979798
C     1.1400581788     2.7101392399     0.2232910882
C     -1.4189206953     1.4071828469     2.5344618
C     -0.8574751749     2.4173592778     1.6823172035
C     -2.4257445524     -0.696041384     1.7546301584
C     -2.4257996335     0.6936867732     1.7550472498
C     -1.7057036907     -2.5009058741     0.5070852303
C     -2.6490889412     -1.4079918961     0.5110560488
C     0.2884851471     -2.9238288584     -0.8804500367
C     -1.1784980903     -2.9479651988     -0.7020465714
C     0.5404704074     -2.3414668167     -2.1816070782
C     2.456474588     -1.2440702229     -1.2822751579
C     3.120682341     0.0008701149     -0.9281234948
C     2.455495618     1.24596731     -1.2818220523
C     1.4858269145     -1.2730826909     -2.308190839
C     1.4858606143     1.2757123738     -2.3082855145
C     1.0775922022     0.0010805574     -2.9828486118
C     0.2869578016     2.9244518806     -0.878909666
C     0.5392714383     2.3432350104     -2.1801658868
C     -1.7070626943     2.4995998963     0.5085768911
C     -2.6497647641     1.4063903599     0.5120846749
C     -1.180149611     2.9476261427     -0.70049603
C     -3.0388562267     -0.745534475     -0.7001986379
C     -3.039290756     0.7442811679     -0.6996298617
C     -1.7903952865     -2.5128558872     -1.8848319958
C     -0.7122271823     -2.2429374824     -2.8631608708
C     -2.7164310947     -1.4392503517     -1.9219369714
C     -0.1500847103     0.0006185991     -3.6870289626
C     -1.0366622312     -1.1516949533     -3.6151409333
C     -2.365709744     -0.6786247268     -3.1215697083
C     -0.713325142     2.2446970407     -2.8621234102
C     -1.7917888526     2.5129569606     -1.8832568801
C     -2.7173296886     1.4387536059     -1.920829386
C     -1.0372301168     1.1521868464     -3.6122436034
C     -2.3650903978     0.6783787768     -3.1200610466


