54

 C     1.5437730527     0.0520453838     4.13315096
C     0.7618096571     -1.1641184238     3.986074608
C     1.5565751918     -2.1003123434     3.319548639
C     2.6676963176     -0.0601043858     3.1818092795
C     2.7438099681     -1.361172051     2.732689816
C     2.5892969975     1.0082658659     2.1923945086
C     0.7719226061     1.0931541234     3.6451124222
C     1.4930120814     1.8401280813     2.6207064738
C     -0.526775912     -0.8209877901     3.3640781459
C     -0.555044754     0.6078752286     3.2520117824
C     -1.1001299367     -1.6104484779     2.2889837104
C     1.0208480558     -2.8892108115     2.3089607612
C     -0.3223954772     -2.7262962018     1.8322088269
C     2.7858861824     -1.6529630188     1.3248359241
C     1.858854031     -2.7205684404     1.1332320069
C     2.7506801953     0.7675876005     0.7831346693
C     2.8260400776     -0.6159416289     0.3182418156
C     2.2077190683     1.7805022817     -0.1296621453
C     0.7573779857     2.5654434512     1.7104942896
C     1.2448450293     2.7284261232     0.3595513229
C     -1.2793967688     1.2711900454     2.2338509919
C     -0.6770582978     2.4413539033     1.6454039147
C     -2.0105950954     -0.9567451861     1.3310481932
C     -2.182808745     0.485613407     1.4015936048
C     -2.3176052124     -1.620613544     0.0521770352
C     -0.2857656725     -2.9586906799     0.3951000524
C     1.0897876683     -2.8662332398     -0.0326036587
C     -1.3074195201     -2.5580692399     -0.4634732817
C     2.3105994219     -0.9486516791     -1.024098362
C     1.4271623315     -2.1309784683     -1.1937634396
C     2.1224854344     1.4816155248     -1.5194393236
C     2.1379490203     0.0777139868     -1.966759036
C     1.2224153014     2.1672825466     -2.3598711153
C     0.1439452545     3.1571294943     -0.4566904893
C     -1.0597179608     2.9019989338     0.3361734162
C     0.1372806122     2.9126452362     -1.8324682373
C     -2.7823700996     1.1662284238     0.289774597
C     -2.1670666443     2.3726439157     -0.2867406318
C     -3.1027691423     -0.9428537838     -0.922801463
C     -3.3470205416     0.4452890295     -0.759915827
C     -2.8452179719     -1.111799827     -2.3505403466
C     -0.9220146175     -2.4828045792     -1.8499502169
C     0.4399863454     -2.1575897232     -2.2012390188
C     -1.7628931766     -1.8290596504     -2.7967122995
C     1.2529168676     -0.0362641581     -3.1239815533
C     0.6846524948     1.2435448797     -3.3527235933
C     0.3985648685     -1.1583200989     -3.2660753322
C     -0.9352301199     -0.9795330782     -3.6856807289
C     -1.0878902242     2.4712083689     -2.5174966744
C     -2.2416261071     2.2774849648     -1.7505324535
C     -3.0874932697     1.1465096008     -2.039181454
C     -2.7882692119     0.2221079812     -3.0106430431
C     -0.7130322007     1.4572056431     -3.5297884403
C     -1.5402854482     0.3181364543     -3.7495096027


