54

 C     1.2892691541     -0.0220121025     4.2884728639
C     0.5967627134     -1.1457663365     3.8219416528
C     1.4905559339     -1.9914524826     3.0877001785
C     2.5933875602     0.0011514565     3.5862477279
C     2.7463330927     -1.2025384346     2.8738727417
C     2.6616235673     1.2027996666     2.8473222206
C     0.535912846     1.1273159347     3.8352353092
C     1.3918439069     1.9341376826     3.088528029
C     -0.6494121574     -0.7500258793     3.1565582909
C     -0.7114218467     0.6883064645     3.1851882486
C     -1.1181842454     -1.4379340654     2.0141462956
C     1.0920216272     -2.5815757138     1.9051502527
C     -0.2703969564     -2.4696201675     1.393428832
C     2.9875770553     -1.2180369866     1.4778835776
C     2.1689220305     -2.3073536791     0.9420794122
C     2.8438117631     1.2081468335     1.4368228124
C     3.037294514     0.0005826101     0.6829103511
C     0.9416993524     2.5122250442     1.8793911272
C     1.8969383407     2.165144458     0.8648789673
C     -1.2691176094     1.4118309949     2.101495538
C     -0.4530460336     2.487371961     1.5368688443
C     -2.0848528306     -0.740269633     1.1792600767
C     -2.1597954453     0.7154608985     1.1825340139
C     -2.5500349646     -1.4369564858     0.0290753743
C     -0.4834637069     -2.8298169098     0.0203713667
C     -1.7075256372     -2.4534166287     -0.6106534885
C     1.9435093822     -2.4194033782     -0.3806456534
C     0.670678697     -2.9581663979     -0.8606752274
C     2.6042140778     -0.044421921     -0.7322516624
C     2.3548805202     -1.344361602     -1.2914331398
C     1.5246751725     2.1702949804     -0.5028429434
C     1.9285798994     1.070230062     -1.3914966474
C     -0.7237502175     2.907281873     0.2390853046
C     0.3241192855     2.8798679311     -0.7554966022
C     -2.6746038035     1.4149645637     -0.0102291755
C     -1.9545865953     2.5872392393     -0.4529355228
C     -3.2821002697     -0.7649467287     -0.9594623586
C     -3.3305439089     0.6415457912     -1.0334005963
C     -1.830261374     -2.2907761925     -2.0389139334
C     -2.8622822709     -1.3142030969     -2.2724792666
C     0.5594027407     -2.5703177006     -2.1924167496
C     1.5719857046     -1.5084013589     -2.4334208254
C     -0.6461085935     -2.1878933287     -2.8176966793
C     1.1429344598     0.871854862     -2.619770455
C     0.9447604331     -0.4595123471     -3.1201691146
C     -0.3857356077     -0.9485126449     -3.5596300686
C     -0.3208213347     2.7981750974     -2.0174181561
C     -1.7497854171     2.8523464713     -1.8533292095
C     0.0736943612     1.7994669375     -2.9556157207
C     -3.1296155313     0.9585130315     -2.4614132937
C     -2.7287983502     -0.2831085833     -3.1674129756
C     -1.4260885631     -0.0360681817     -3.7855442111
C     -2.2747424365     1.9730172003     -2.8222596065
C     -1.1403124742     1.3375969615     -3.5574360863


