54

 C     1.4869658505     -0.232966047     4.1311036763
C     0.6996208645     -1.3474434404     4.0354338095
C     1.226604787     -2.3144540556     3.0911001119
C     2.511159227     -0.378020056     3.0741725235
C     2.2994147636     -1.6688855179     2.3992949631
C     2.4137137406     0.7331616309     2.2570251151
C     0.6424043934     0.901194092     3.7728634416
C     1.2935954865     1.6020974992     2.7775041207
C     -0.6721851792     -0.9945716568     3.6099940708
C     -0.7199839125     0.4186305319     3.4163492128
C     0.1114013709     -2.7864039979     2.3340726763
C     -1.0456968076     -1.864701245     2.5735962591
C     0.3436300585     -3.2317496688     1.066459928
C     2.3873289005     -1.7923718905     0.9600142602
C     1.5992751963     -2.8546126932     0.406241128
C     2.6012186889     0.679164495     0.8123752847
C     2.5888113471     -0.6129031296     0.1148788415
C     2.2400377454     1.8424469313     0.1334628146
C     0.5714618676     2.4160263883     1.8799427325
C     1.3217101236     2.8537571767     0.7591655802
C     -1.3862595271     0.9401779405     2.2833774808
C     -0.8658660622     2.2004831577     1.7214640084
C     -1.8101290197     -1.3968510555     1.4593767384
C     -2.0828444548     0.0273695269     1.3666676143
C     -0.7029171501     -3.1804519246     0.0642396398
C     -1.7875618517     -2.2295579167     0.2354875699
C     1.3312770557     -2.8961077819     -0.9649042684
C     -0.0680549644     -3.2690872376     -1.1912350291
C     2.2052664992     -0.6281735273     -1.3030396666
C     1.6317230585     -1.8304865959     -1.8374463793
C     1.9930931508     1.8728425826     -1.2835607956
C     1.8772045314     0.6261953912     -2.0107680824
C     0.6755505589     3.512496798     -0.2692129368
C     1.1449614436     2.9765376649     -1.5618814879
C     -1.4788702837     2.7460796584     0.5785404462
C     -0.7349819059     3.5691414011     -0.3198581072
C     -2.6101117907     0.5678019471     0.1100747138
C     -2.3904325103     1.9261081403     -0.2277704928
C     -2.3612361133     -1.7233148411     -0.943168652
C     -2.874408918     -0.3485650949     -0.989125726
C     -0.5428650242     -2.6170339637     -2.338983903
C     0.5610201743     -1.7865521318     -2.8457497929
C     -1.8317789393     -2.0414948384     -2.2650780673
C     0.9554976636     0.6201833087     -3.0997789039
C     0.2775242943     -0.6053370287     -3.5040247293
C     0.0459296899     2.8692079061     -2.4320905765
C     -1.1335267108     3.23565181     -1.6734458238
C     -2.2225701901     2.3332255972     -1.6251442247
C     -0.0102334734     1.7210316789     -3.2777119171
C     -2.8583189244     0.0917739922     -2.3253716313
C     -2.112884035     -0.9280121601     -3.0990368557
C     -1.1039540996     -0.2703587425     -3.7865924795
C     -2.3635208348     1.3789439271     -2.6632010165
C     -1.266209839     1.1687370652     -3.5860972064


