54

 C     1.3294507567     -0.1153454012     3.7743259398
C     2.492129754     -0.3919703258     3.0953571848
C     2.3167717316     -1.6867134405     2.3553922062
C     0.4502916336     -1.3089433038     3.6186710656
C     1.0282056069     -2.2008141062     2.6224056935
C     -0.8229094446     -0.8473878229     3.4531184094
C     0.551855174     1.0773716568     3.4563981582
C     -0.7941990522     0.6368121726     3.401422098
C     1.0019202054     2.0128537595     2.4375712522
C     3.0153919966     0.5540676278     2.1927014314
C     2.3002248662     1.748252467     1.8702011602
C     2.7732193864     -1.4897509114     1.0318033257
C     3.2851204257     -0.1472119708     0.9514039122
C     2.0565498469     -2.027909818     -0.0778520779
C     0.2297661305     -2.6918467137     1.537022082
C     0.8822172667     -2.845608955     0.2190728453
C     -1.6596766288     -1.3163981324     2.4009487681
C     -1.1923160016     -2.3407494905     1.5255725819
C     -1.6903890208     1.0402762597     2.4107822506
C     -2.3228136755     -0.1544476954     1.8457455874
C     -0.0139515712     2.6611020089     1.5740469268
C     -1.3962916945     2.1696544506     1.5735969363
C     0.4380477183     3.2564403597     0.3408160443
C     2.497081527     1.9407038951     0.4355586606
C     2.9812674028     0.6810667087     -0.1406576301
C     1.6470683146     2.7208406198     -0.2782977506
C     2.1331721495     -1.2978940469     -1.3547921375
C     2.4397347742     0.1380342835     -1.338418518
C     1.3241462432     -1.7845899833     -2.4161164705
C     0.0639521725     -3.2283291519     -0.8843377479
C     0.3936968547     -2.8239506346     -2.199451538
C     -1.9193671637     -2.4550079577     0.2930617454
C     -1.3784529455     -3.1307011653     -0.7852667734
C     -2.8463679743     -0.1358389625     0.5258734262
C     -2.74276455     -1.3486953026     -0.2348063812
C     -2.2103497256     2.2720093202     0.3974290744
C     -2.8768729002     1.0959953194     -0.1613504669
C     -0.455606221     3.4809280986     -0.7275039342
C     -1.7811592417     3.0464725319     -0.7038966836
C     1.3701847464     2.3814389957     -1.6788600419
C     1.701018941     1.0766847792     -2.2048296619
C     0.1288826169     2.9588718496     -1.9812032578
C     0.707279212     -0.8540799794     -3.3472489055
C     0.8029447382     0.5557060431     -3.1841664143
C     -0.8666722698     -2.4253942761     -2.9106736299
C     -1.908937833     -2.5363859427     -2.0202860588
C     -2.6696159293     -1.3543179017     -1.6624166555
C     -0.6438099746     -1.2251026646     -3.6198990566
C     -2.7211767932     1.1204977805     -1.6093292037
C     -2.0834261262     2.3292751766     -1.9483380134
C     -0.8842754273     2.2751347615     -2.7329893281
C     -0.5319881966     1.0907391702     -3.382586519
C     -2.4774316709     -0.1025302943     -2.3724554665
C     -1.4507702005     -0.0533137251     -3.3822684738


