54

 C     1.6958767258     0.1125309779     3.9673984444
C     0.788552338     -1.0392348027     3.9663179023
C     1.3550996136     -2.0489573391     3.2022728841
C     2.6998239203     -0.1120229361     2.9969962983
C     2.5792176704     -1.4796071037     2.569484092
C     2.6595228592     0.963550129     2.0065533045
C     0.9328820274     1.2429589341     3.5602599879
C     1.6162165061     1.8772028235     2.4592689342
C     -0.5479445362     -0.5573043266     3.637286311
C     -0.4424476651     0.8831507328     3.3891726824
C     -1.3460265797     -1.312364185     2.7777105872
C     0.5943592401     -2.6916332197     2.1672825792
C     -0.7786097232     -2.4390118935     2.0395073043
C     2.5247232761     -1.764159317     1.2208553719
C     1.3697571     -2.6701958416     0.9540159638
C     2.7762427732     0.6926690023     0.6210890426
C     2.8355000249     -0.7324639913     0.2301378581
C     2.1829286832     1.6226761967     -0.3618326309
C     0.8528931124     2.5428964305     1.5241343888
C     1.2537550709     2.5701686633     0.1411932452
C     -1.2399394221     1.5150851166     2.3647141638
C     -0.5984041546     2.5089087921     1.5730293885
C     -2.306071475     -0.667364128     1.9022827494
C     -2.3263906658     0.7524725257     1.7303091675
C     -1.4064408846     -2.4718071453     0.7364264253
C     -2.4971898339     -1.5236547351     0.7550920513
C     0.7826143179     -2.7283013681     -0.3082321819
C     -0.6756351923     -2.6680219791     -0.4665545508
C     2.5320542263     -1.0668892344     -1.0706688016
C     1.6039640299     -2.1990969088     -1.375440457
C     2.0703850413     1.2603827339     -1.7855351518
C     2.397062132     -0.0944557297     -2.1396872845
C     1.0805912852     1.9213444883     -2.6122667268
C     0.098783926     2.9698433425     -0.6346868392
C     -1.0721988721     2.8451187096     0.2501115225
C     0.0167401687     2.6985979465     -1.9748495063
C     -2.8879809003     1.2420921047     0.5011414082
C     -2.2560185051     2.3349111055     -0.242523306
C     -3.0181001764     -1.0219433058     -0.4300164609
C     -3.3825933844     0.3439154894     -0.4727824802
C     -1.2428152659     -2.173838096     -1.7484259155
C     -2.4211710244     -1.3839214325     -1.7169655804
C     1.0967006131     -1.9922780126     -2.6238977799
C     1.6962616189     -0.7559106042     -3.183570784
C     -0.3398396251     -1.9455465256     -2.872135981
C     0.452088371     1.2327057896     -3.6937196996
C     0.7229604096     -0.123779376     -3.9316195022
C     -0.5575610015     -0.8871921158     -3.7795397838
C     -1.2812058233     2.3066086096     -2.5542662291
C     -2.3711889663     2.0593046486     -1.6829597452
C     -3.0821337165     0.8372202702     -1.8083198959
C     -2.5862165125     -0.2289685838     -2.6091028714
C     -1.0017483936     1.3807613881     -3.5804112127
C     -1.6016847816     0.0628472663     -3.58403272


