54

 C     1.3994457766     -0.0359646425     3.6089468559
C     2.5565479201     -0.2433593185     2.8963905346
C     2.4812870147     -1.5891886706     2.2827631202
C     0.5535191844     -1.2436627595     3.4699038942
C     1.1921841575     -2.1555908307     2.563358008
C     -0.7614574001     -0.8256459324     3.2627608218
C     0.581197422     1.1286489695     3.3803865602
C     -0.7895006264     0.656733873     3.2567412227
C     1.0474827145     2.1190073941     2.4957922048
C     2.9941753176     0.6961558276     1.8944481077
C     2.2792925117     1.8982223783     1.7372300826
C     2.9551514324     -1.4917970319     0.9740319788
C     3.3381086254     -0.083083457     0.7149137739
C     2.3109353891     -2.228019616     -0.0490357129
C     0.4240609297     -2.7466238462     1.4880465768
C     1.0604543538     -2.8766090318     0.2070532723
C     -1.5725466299     -1.5319587814     2.3424554432
C     -0.9922504424     -2.5086898439     1.4711315759
C     -2.6102969834     -0.842198326     1.6074454584
C     -1.6837501251     1.3104779557     2.4206251831
C     -2.6526058928     0.5558321206     1.6335041027
C     0.1084073313     2.7984146641     1.6190981482
C     -1.2451561249     2.4426166955     1.61908477
C     2.0784781542     2.4453065334     0.4059067664
C     0.7633259901     3.0596935616     0.3489997838
C     3.147490497     0.4445444053     -0.554506234
C     2.552645999     1.7619127998     -0.7196437868
C     2.2775478165     -1.7182774127     -1.4025434018
C     2.6730241328     -0.3987139588     -1.6460777541
C     0.2923993232     -2.8766051118     -1.0401729827
C     1.0839155796     -2.2280131237     -2.0415632964
C     -1.7603054595     -2.5086859541     0.223905282
C     -2.7995658856     -1.5319523961     0.3499275099
C     -1.1379400985     -2.7466157938     -1.0484496397
C     -3.2563148833     -0.8256330604     -0.7885796796
C     -2.9194141106     1.3104842341     0.4140595679
C     -2.0062419348     2.4426205755     0.3831754655
C     -3.2635573946     0.656746435     -0.7608214648
C     0.0319251836     3.0596973158     -0.838704584
C     -1.3970244262     2.7984224762     -0.8255366897
C     1.7915600493     1.761916717     -1.9555530061
C     1.9118262147     0.444550738     -2.5610716761
C     0.5730463454     2.4453143319     -2.0387280771
C     0.4602932274     -1.4917840576     -3.0773080909
C     0.8640511746     -0.0830707143     -3.3026484769
C     -1.7524456899     -2.1555754766     -2.2183563333
C     -2.8494298746     -1.2436449999     -2.0560650785
C     -0.9216627896     -1.589170808     -3.2432054211
C     -2.7570286179     1.1286660765     -2.0404797676
C     -1.7572277042     2.1190217578     -2.0587104602
C     -0.5254180451     1.8982367914     -2.8172724749
C     -0.344051204     0.6961730068     -3.5264179628
C     -2.5928445259     -0.0359440444     -2.8740389819
C     -1.4357428885     -0.2433386338     -3.5865950782


