54

 C     1.5981723579     0.0356094948     3.7519351203
C     0.8066495717     -1.0895316996     3.5892826545
C     1.3376031964     -1.9429870161     2.5027970395
C     2.500143573     0.0511368979     2.6254646039
C     2.3943481863     -1.1759180827     1.8759102208
C     2.4660056329     1.3099061647     1.9711955537
C     0.7517513226     1.2168553409     3.5600528882
C     1.3904798219     2.0823382527     2.6247429239
C     -0.5731926605     -0.6509545493     3.4880201788
C     -0.586568898     0.8188881314     3.3334691548
C     -1.4361999148     -1.4024606809     2.7539017795
C     0.4589395882     -2.7277621103     1.7377836066
C     -0.970776576     -2.6329802101     2.0479028275
C     0.807040902     -2.956697558     0.3652235828
C     2.5591692344     -1.1605313294     0.4661270835
C     1.876817627     -2.1922282364     -0.2513685395
C     2.6790359643     1.3844434984     0.5550540213
C     2.8276758486     0.1282088592     -0.2117721989
C     2.1332169166     2.5392503589     -0.1017248256
C     0.5788376402     2.8719141816     1.8194723231
C     1.0998490852     3.2595430186     0.556661832
C     -1.3748391266     1.4128105743     2.2597639149
C     -0.8189740692     2.5385701     1.615365053
C     -2.4795233549     -0.7835878345     1.9424683519
C     -2.338132043     0.5778289063     1.5027670795
C     -1.9043669721     -2.9064535258     1.0735045704
C     -2.9121006642     -1.8065810818     1.0628723591
C     -0.185947171     -3.2087646629     -0.6472877883
C     -1.5594196687     -3.2051436864     -0.3027776851
C     1.5794796771     -2.0613747384     -1.6421740909
C     0.2529038469     -2.5955073514     -1.8862298808
C     2.6111615095     0.1906949309     -1.604777001
C     2.0240097208     -0.9327253932     -2.3407483695
C     1.8156002862     2.5326512756     -1.5257436905
C     2.1691100512     1.4203927865     -2.2808498926
C     0.0228900539     3.4375478582     -0.3767064976
C     -1.1292747205     2.8524284814     0.2097529333
C     0.4713054783     3.0987239679     -1.6842048583
C     -2.63921     0.8809054741     0.0942314463
C     -1.9710225183     2.0072948003     -0.5779103474
C     -3.1876186326     -1.5257629129     -0.2456728834
C     -2.4525478063     -2.4637039056     -1.1316089357
C     -3.0691090703     -0.1997979963     -0.7549357603
C     -0.6540035483     -1.8779300598     -2.7350480546
C     -2.0099026618     -1.7314978159     -2.2348742493
C     -2.5326891907     -0.357561313     -2.079660839
C     1.2389087401     -0.4276508871     -3.4077750027
C     1.3328982656     1.0273273179     -3.3809204348
C     -0.131282199     -0.7952479784     -3.5300300028
C     -0.4488542949     2.4895821274     -2.54181348
C     -1.6711262592     1.9393006875     -1.9854569468
C     -1.9184892161     0.7058231347     -2.7362750646
C     0.0464942384     1.5528114081     -3.5304559895
C     -0.8753270901     0.4485545959     -3.6569197837


