54

 C     1.5969476344     -0.0189433722     3.6801437602
C     0.7873965084     -1.1630097976     3.479321868
C     1.3254501924     -1.9662286965     2.4019426771
C     2.6116836225     -0.0542552746     2.6934068842
C     2.4886093945     -1.2592911722     1.900845088
C     2.6315278691     1.2067295561     1.9907401554
C     0.7554373132     1.1148101681     3.326286507
C     1.3798210763     1.89546374     2.3075367406
C     -0.5933539456     -0.7532709195     3.3800433043
C     -0.5979857622     0.6934031898     3.1595900128
C     -1.4574417037     -1.5580813973     2.6861357459
C     0.4458297497     -2.6736304659     1.5326006632
C     -0.9498448588     -2.6735370166     1.9080527958
C     0.797802461     -2.7520495997     0.0926066549
C     2.8116266344     -1.2357606032     0.5133983894
C     1.9742977793     -2.03700597     -0.4142364768
C     3.1234541077     1.226068001     0.7126515866
C     3.4190157155     -0.0182576957     0.0259154177
C     2.5506785949     2.1613640569     -0.2612938908
C     0.6044060896     2.5257361031     1.2867489148
C     1.2731383027     2.772611813     -0.0014656415
C     -1.4343803247     1.2866137147     2.1650731471
C     -0.8527824969     2.3502538903     1.3361883841
C     -2.5643132552     -0.9473949644     1.9422831629
C     -2.5325461763     0.45961463     1.6380514439
C     -1.94902174     -2.9079209772     0.924526151
C     -2.9761363131     -1.8802814786     0.9662197008
C     -0.2674110479     -3.0154315446     -0.8401852864
C     -1.6096380035     -3.1215485549     -0.4061341758
C     -0.3515409076     -2.3052281576     -2.1105486002
C     1.9681773773     -1.6566989487     -1.803293057
C     0.7331740245     -1.6459668272     -2.5778516052
C     3.3432158398     0.308563222     -1.3554088232
C     2.856950131     1.664916642     -1.5467175469
C     2.6757647889     -0.5169914931     -2.252317517
C     0.5807957698     -0.3436407125     -3.2598913125
C     1.8942757075     1.657130587     -2.6281756159
C     1.8044103408     0.3055023255     -3.119534471
C     0.4616245286     3.0299818036     -1.1664621998
C     0.7184765507     2.3567441547     -2.4600310145
C     -1.5920278868     2.748945463     0.1827005902
C     -0.9173850876     3.1249898777     -1.0184616624
C     -3.147014579     0.8367441605     0.3881666136
C     -2.7446215066     2.0144410613     -0.2312747159
C     -3.2937818141     -1.4960355179     -0.3931218541
C     -2.4837444065     -2.3007260223     -1.27216609
C     -1.7038917328     -1.7322142311     -2.2756311431
C     -3.4110108061     -0.1530505101     -0.681016915
C     -0.6809082905     0.3778895595     -3.17641702
C     -0.5524964897     1.7886360088     -2.9143807313
C     -1.5676642748     2.4487881364     -2.1691546286
C     -2.6675265531     1.7803217311     -1.6953265663
C     -1.8605837541     -0.3390861407     -2.6682043186
C     -2.8549344075     0.3892744957     -1.9224735199


