54

 C     1.5572833664     0.0457434395     3.7795891881
C     0.7585739792     -1.0774966089     3.5691525956
C     1.3603038131     -1.9501692026     2.5724178169
C     2.5206918252     0.0466341737     2.6890029601
C     2.424487313     -1.2018335088     1.9710987132
C     2.427412469     1.2363705444     1.9611547446
C     0.7356153689     1.2126941033     3.582095774
C     1.3880531343     2.0700126349     2.6519167223
C     -0.6126900057     -0.6314217368     3.3302955662
C     -0.6208227737     0.8353906751     3.3182748933
C     -1.376113521     -1.3374678442     2.4204810406
C     0.5496196688     -2.8016157371     1.7657665902
C     -0.8616322347     -2.5233667382     1.7379149084
C     1.1475341308     -3.2724496323     0.5649773496
C     2.6365132199     -1.2542664252     0.5505803376
C     2.2265089862     -2.4693035286     -0.0494997894
C     2.5028718304     1.2374618457     0.5013546166
C     2.6285285417     -0.0130959143     -0.2303934932
C     1.919946656     2.3653432756     -0.1490687712
C     0.612383246     2.9183176108     1.9018371245
C     1.0780708652     3.2592238735     0.5804707901
C     -1.3980475445     1.5534231358     2.3417230754
C     -0.8224021544     2.7470832165     1.8070527046
C     -2.2771974779     -0.6494191977     1.5176069382
C     -2.3212531969     0.7807917863     1.4654526185
C     -1.5916086525     -2.6481805166     0.5083514877
C     -2.426209457     -1.4619511276     0.3450876055
C     0.3288591729     -3.7290321525     -0.5037493451
C     -1.0255406066     -3.2719884565     -0.6047476647
C     2.0777044896     -2.5376206004     -1.4622926877
C     0.9730207305     -3.4158211811     -1.7497210876
C     2.1763724242     -0.0665467804     -1.6362545076
C     1.9395197872     -1.3455000241     -2.2200739102
C     1.3962202747     2.2991150648     -1.5090112714
C     1.4860411274     1.0918989158     -2.23766548
C     -0.0153066474     3.6260821414     -0.2361754285
C     -1.1987311874     3.2314142849     0.4793744683
C     0.2208772928     3.1642804133     -1.5797290913
C     -2.7591167654     1.3286682027     0.2372870133
C     -2.2381270598     2.6179845764     -0.2393045244
C     -2.6699240242     -0.8937847973     -0.9335240295
C     -2.9961057779     0.4992862171     -0.9267344356
C     -1.2072226846     -2.6617402137     -1.9449970038
C     0.078455406     -2.7755675522     -2.6121325147
C     0.7328535042     -1.5673843907     -3.0727969345
C     -1.9738185489     -1.4904544649     -2.1117524352
C     0.4123204087     0.856948896     -3.196135531
C     -0.0582627324     -0.5197524753     -3.4078043932
C     -1.4966512445     -0.5575760088     -3.1312340616
C     -0.8831983082     2.7738345759     -2.3392101919
C     -2.1583178478     2.5682843529     -1.6534155826
C     -2.6979432452     1.3042532354     -2.0778560741
C     -0.716107369     1.6768529937     -3.2335252478
C     -1.8942919345     0.7774126114     -3.1015121658


