54

 C     1.5926824566     -0.0634841772     4.5790211311
C     0.6993203617     -1.1653965906     4.6561863962
C     1.1841491092     -2.233980904     3.8974499562
C     2.5926733262     -0.4065012027     3.5118636379
C     2.3616224854     -1.7368600533     3.1124415857
C     2.5726245669     0.6145138827     2.507736442
C     0.8391927861     0.992360967     4.0405670935
C     1.5386907915     1.5744055802     2.9410642965
C     -0.6419156848     -0.7787287818     4.1305842247
C     -0.5803616947     0.5761281977     3.7660044878
C     0.1855150673     -2.5964104141     2.9543992553
C     -1.0094604178     -1.7269099009     3.1128458534
C     2.1036681657     -2.0108014659     1.7386929017
C     0.7812083374     -2.6543238795     1.668455018
C     2.6097816947     0.3095766412     1.110447251
C     2.3613402021     -1.0629381317     0.7053365534
C     2.183969117     1.345852866     0.1649559608
C     0.8175462142     2.2658978262     1.9933470071
C     1.3334574844     2.3746377431     0.6714270988
C     -1.240753164     1.0514842136     2.5763116833
C     -0.644918708     2.1556229004     1.8787453766
C     -1.6561320761     -1.2965746514     1.9485735352
C     -1.9564925113     0.1204869355     1.725113689
C     -0.0142404462     -2.5233873214     0.5268111758
C     -1.3745710677     -2.0660218846     0.720221438
C     1.7647593081     -1.3085724562     -0.609199266
C     0.6126590261     -2.1742571957     -0.7233149853
C     2.0988430857     1.0553459013     -1.2470873192
C     1.9694148526     -0.3492100773     -1.6737648892
C     1.461799006     2.0338990759     -2.0872979193
C     0.250777842     2.8463331412     -0.1493709822
C     -0.9770337931     2.4673189126     0.5409789079
C     0.3505379417     2.7743404521     -1.495637784
C     -2.4175339201     0.5356164595     0.3988325542
C     -1.9710347945     1.7712272697     -0.225500684
C     -2.0984321436     -1.7673945609     -0.4044261501
C     -2.8305102208     -0.5006982725     -0.5016253034
C     -0.206631204     -2.1790294734     -1.9184659479
C     -1.6372821763     -2.1244052944     -1.7277681008
C     1.4216033695     -0.6407004241     -2.9560949286
C     0.3294555787     -1.5914595019     -3.1017908359
C     1.0436624445     1.7202838425     -3.3858940882
C     1.1611888683     0.4189381551     -3.9216060821
C     -0.8362373168     2.5895992     -2.3260105394
C     -1.9860863308     1.9540199654     -1.6958160074
C     -0.3599483277     2.1777627023     -3.5912359681
C     -3.008830883     -0.2615998503     -1.8578446764
C     -2.4413739404     -1.3860603539     -2.6474466124
C     -2.6566828967     0.9643952927     -2.5154990598
C     -0.5490147472     -1.0944380184     -4.1548542435
C     -0.0184215384     0.1141200637     -4.6638769474
C     -1.0057721419     1.1759361175     -4.3523579562
C     -1.9335094238     -0.8770973476     -3.8193159095
C     -2.1689618798     0.5971379205     -3.8253113648


