54

 C     1.227499248     -0.0482754281     3.8292424187
C     2.4390997131     -0.3534930523     3.2466720452
C     2.2871619771     -1.6568058977     2.5062790374
C     0.3460908123     -1.2428218918     3.6353071159
C     0.9761274929     -2.1353799392     2.6651877489
C     -0.9253853144     -0.8077518633     3.4507349168
C     0.4799172876     1.1031372583     3.4028861757
C     -0.9020267717     0.6696398328     3.3531381166
C     0.989847899     1.9597752209     2.3551278818
C     3.0635479109     0.5572428926     2.3909235885
C     2.3466323418     1.71190955     1.9256849868
C     2.8933824696     -1.5065779398     1.2329162009
C     3.4780038636     -0.1875980398     1.2076418965
C     2.2221888595     -2.0171442851     0.0692929457
C     0.2221412639     -2.6055633748     1.521933415
C     0.9259281605     -2.6952736789     0.2402904067
C     -1.7459336409     -1.325911611     2.3952641202
C     -1.2297533189     -2.3322191424     1.5041934944
C     -1.7583707492     1.0160052465     2.3360551819
C     -2.4327235261     -0.2135991238     1.838648472
C     0.0212541677     2.49339521     1.3582091935
C     -1.3888697815     2.0527231042     1.3867249578
C     0.5068421509     2.914966941     0.0900837119
C     2.6864358367     1.8593023196     0.5136523389
C     3.3518857393     0.6288547886     0.0756056389
C     1.827425464     2.4887863854     -0.3540498397
C     2.4637117219     -1.3178522217     -1.1612965246
C     2.9602510847     0.0344047158     -1.1340707111
C     1.5542190652     -1.4119617003     -2.2832938714
C     0.1403263867     -2.8924646507     -0.9411370965
C     0.464858797     -2.2526836115     -2.2268716013
C     -1.9338914394     -2.4529628476     0.2762608693
C     -1.2629956247     -2.9260280338     -0.8684820256
C     -3.0222176105     -0.251166079     0.5530093901
C     -2.9064358278     -1.4553195208     -0.1829387948
C     -2.1852591317     2.1325303475     0.2373017359
C     -3.1064342309     1.0112327566     -0.159681909
C     -0.33349629     2.9913965977     -1.0811443761
C     -1.7051812471     2.7266626362     -0.9796860284
C     1.7099471162     2.0612675623     -1.7432256014
C     2.2378272301     0.817587301     -2.1194597412
C     1.4407730588     -0.0876496992     -2.9175130965
C     0.4084253994     2.4556987177     -2.2265497107
C     0.2501835298     0.3310128638     -3.4898294072
C     -0.2485707179     1.6710320193     -3.1907175776
C     -0.7844147841     -1.8632546051     -2.8909364029
C     -1.8370437126     -2.2897835474     -2.054619852
C     -2.8816127613     -1.4156217255     -1.6474085792
C     -0.9010979957     -0.5948678678     -3.5299645073
C     -3.2413258148     1.01829881     -1.535287825
C     -2.3866272318     2.0925054308     -2.0763415898
C     -1.6826269948     1.5728519558     -3.1406635146
C     -3.0391417999     -0.1881147737     -2.3281626212
C     -2.0804997506     0.155925688     -3.334935237


