54

 C     1.3538339215     -0.0417937172     4.173337396
C     0.5662784287     -1.2562451891     4.041333834
C     1.3549288644     -2.2263410083     3.3914364826
C     2.4980742307     -0.1943982629     3.2676137278
C     2.5485721311     -1.49577783     2.7992702447
C     2.4933807767     0.8639277006     2.2835800577
C     0.6001690465     0.98660342     3.6125319706
C     1.3406692837     1.6711434986     2.5726296073
C     -0.7189713539     -0.9314426057     3.4465765973
C     -0.7036228187     0.5032502624     3.1920097856
C     -1.3117775945     -1.7931215541     2.4564754604
C     0.8236257172     -3.0131191492     2.3820141502
C     -0.5245180212     -2.895263142     1.940244076
C     2.5936625455     -1.8068913784     1.3878835176
C     1.674353861     -2.8716927644     1.1842668895
C     2.7991675227     0.5874606934     0.8998762202
C     2.7151815843     -0.7742468986     0.3770088212
C     2.4704402043     1.6234662018     0.0264759597
C     0.6747328032     2.3855426058     1.5530532575
C     1.5148254109     2.671046571     0.4452472731
C     -1.3756194247     1.09954649     2.0817493394
C     -0.7495611601     2.1880476052     1.2952767736
C     -2.211233594     -1.1643463223     1.5436330899
C     -2.2972178901     0.2641678343     1.4074718881
C     -2.476665702     -1.700943883     0.2297537552
C     -0.4970487957     -3.0678635623     0.4986993735
C     0.885095895     -2.9389980314     0.0449758749
C     -1.5226510641     -2.614618513     -0.3402274362
C     2.1171196992     -0.9742560277     -0.9452214595
C     1.2001071751     -2.124032779     -1.1033291269
C     2.3136113508     1.4379297732     -1.3824028473
C     1.9777773608     0.1358061406     -1.8935004944
C     0.9856091127     3.2457318358     -0.6870712415
C     1.629439287     2.6056596617     -1.867716547
C     -1.2865784559     2.5609705509     -0.0036179787
C     -0.4122152153     3.2677330969     -0.9185921555
C     -2.7971136544     0.5859380071     0.0836868694
C     -3.0448685191     -0.6732056004     -0.5963194559
C     -2.3719976577     1.7376897375     -0.6131759027
C     -2.9344478225     -0.7528128165     -1.9934887008
C     -1.1803998276     -2.4380721292     -1.7311356339
C     0.2172627543     -2.0853311234     -2.0931314493
C     -2.0080454163     -1.7097483343     -2.5672331552
C     1.0290169885     0.0753705334     -3.0435069497
C     0.1821364683     -1.0903696299     -3.1318655023
C     -1.1851256058     -0.9905201398     -3.5500017373
C     0.7307130841     2.5508781269     -2.8798236394
C     -0.5513972602     3.1193115734     -2.3647180341
C     0.448001376     1.3057802271     -3.5656654694
C     -2.5189146581     1.6832693884     -2.0732347787
C     -2.7996648352     0.4633134416     -2.7177151856
C     -1.7607515119     0.2567147013     -3.7848333525
C     -1.5411546701     2.3716312958     -2.9107604508
C     -0.9562243352     1.3775213874     -3.8598236287


