54

 C     1.2754536113     -0.0462368083     3.6267322419
C     2.3325720971     -0.3756196909     2.8498077387
C     2.1437078503     -1.7678456655     2.3672372044
C     0.4212700356     -1.2663910568     3.7829098398
C     0.8324579162     -2.1911400908     2.7538690152
C     -0.8791713015     -0.8376782171     3.8638717427
C     0.4217209715     1.0665858491     3.2478952578
C     -0.8920635906     0.6237358068     3.5320976934
C     0.6877797263     1.825559864     2.0431265311
C     2.7282224911     0.437836917     1.7334594868
C     1.9390408151     1.5771676079     1.3228073491
C     2.5793095074     -1.8009079741     1.0636684948
C     3.1867550515     -0.478898028     0.7506899681
C     1.7756654591     -2.4166713648     0.0233879879
C     -0.1173082261     -2.5672373337     1.7074226345
C     0.3470423264     -2.6456998996     0.3091572041
C     -1.8767744273     -1.4288117312     3.0789874965
C     -1.5002176862     -2.2330114917     1.9483504661
C     -2.0103233436     0.9030647254     2.712418505
C     -2.6905859273     -0.3483725987     2.5385758627
C     -0.4934554244     2.3376313416     1.304199933
C     -1.8581040854     1.8180834215     1.6058750073
C     -0.2812808755     2.8741146091     0.0239832796
C     2.0759246692     1.9869364893     -0.0795282235
C     1.0210752434     2.7634824573     -0.6493656518
C     3.3585617891     -0.0931060644     -0.5680690714
C     2.8733010976     1.221743179     -0.9971884304
C     2.2185661814     -2.1435900291     -1.2943533186
C     3.1606309632     -1.0465404727     -1.579292125
C     1.2810672217     -2.1431668492     -2.3559046584
C     -0.6090691761     -2.4470883792     -0.7900040131
C     -0.0982992412     -2.1812235528     -2.1045395462
C     -2.3687342366     -1.850918985     0.8354426941
C     -3.1508488876     -0.6995843807     1.2632725321
C     -1.9601903938     -1.9619419747     -0.5107653995
C     -2.7917899981     1.658166402     0.5470602538
C     -3.4136241266     0.3426125064     0.3674223113
C     -1.3270271169     2.8822135975     -1.0032035539
C     -2.5307245325     2.190950259     -0.7741078086
C     0.7711589825     2.7007099622     -2.0353018112
C     -0.680311919     2.7062054258     -2.2506405799
C     2.5081777845     1.0740220014     -2.3885276781
C     2.6820697072     -0.3279202593     -2.7323422835
C     1.576121805     -1.0129829955     -3.2338984276
C     1.3880386313     1.7616174067     -2.8933629831
C     -0.7266562535     -1.178687719     -2.9926215791
C     -0.9917787781     1.6502141278     -3.1343423794
C     0.3490297788     -0.3627272806     -3.5894971739
C     0.2771952216     1.0293288773     -3.5452810299
C     -2.6151985125     -1.0682056081     -1.461426993
C     -3.3620489249     0.0376261145     -1.0040564306
C     -2.9405859389     1.2277170344     -1.7465342638
C     -1.929336936     -0.6152975928     -2.6711660196
C     -2.116407095     0.8401781014     -2.8184072887


