54

 C     1.5226517213     -0.1106914574     4.1111432244
C     0.7183869097     -1.2457962566     4.0821050027
C     1.2225020452     -2.2415381917     3.1628406778
C     2.488091683     -0.3131088952     3.0414869684
C     2.2922486399     -1.6471887514     2.4352344876
C     2.4405904941     0.7698124224     2.1680697738
C     0.6908333561     1.0093657597     3.6938728105
C     1.3355906201     1.6766183102     2.6477125714
C     -0.6029334368     -0.892927344     3.5983464417
C     -0.6466297872     0.5315828307     3.3660257276
C     0.0937195276     -2.7724275     2.4291191487
C     -1.0341376875     -1.8348234874     2.6144451708
C     0.3195369759     -3.2585895809     1.1845436315
C     2.3817280171     -1.8446445925     1.011281445
C     1.5939357972     -2.9370449858     0.5049847823
C     2.6192780703     0.6109797913     0.7473149634
C     2.5962269568     -0.7069153891     0.1088268101
C     2.2811947447     1.7348193392     -0.0199290858
C     0.5962824652     2.4053675958     1.707632324
C     1.344901105     2.7693916453     0.5405091177
C     -1.3451694904     1.0094121925     2.2348088753
C     -0.830787216     2.1941925239     1.5441357061
C     -1.7942444199     -1.4134388861     1.4990487507
C     -2.1065095012     0.0324247463     1.4255060873
C     -0.7238610994     -3.2056451623     0.1663374162
C     -1.7610754688     -2.2207383956     0.262887449
C     1.3488776765     -3.0510599667     -0.8526207415
C     -0.0698879929     -3.4209680159     -1.0749419915
C     2.2067567805     -0.7780437054     -1.3067147846
C     1.6756947235     -2.0247887005     -1.7905159781
C     2.0605900378     1.6929868028     -1.4168296297
C     1.8435674266     0.4349805149     -2.0689262222
C     0.74096362     3.421361878     -0.4894215802
C     1.2757930728     2.8657947375     -1.7489146535
C     -1.4822971442     2.6898037665     0.3427007149
C     -0.7117980839     3.4691342177     -0.6090785887
C     -2.7031823889     0.505824325     0.2671588673
C     -2.5572055871     1.8837729551     -0.1837567554
C     -2.2806679842     -1.6571085799     -0.9834659169
C     -2.9135045301     -0.366320455     -0.9083577501
C     -0.4911691891     -2.8178098572     -2.2338870469
C     0.6192470616     -2.0212854232     -2.7584389834
C     -1.6510413689     -1.9829481983     -2.2417585512
C     0.7782504156     0.4027292724     -3.0919439001
C     0.0959041285     -0.8386842124     -3.3009210135
C     -1.3700341544     -0.9108199324     -3.1800723792
C     0.2696463308     2.8353726621     -2.6612869066
C     -0.9690491598     3.3447615924     -2.0081535137
C     -0.0310356796     1.5942521491     -3.3538765588
C     -2.8374686318     1.8680553155     -1.5771697264
C     -2.992090373     0.4713134014     -2.0194260286
C     -2.1099379999     0.260968569     -3.1407356379
C     -1.9992854846     2.5338356743     -2.4795355179
C     -1.4379865443     1.4964409318     -3.3973994538


