54

 C     1.5568267797     -0.2221935677     4.1264140561
C     0.6883818674     -1.3715778989     4.1750338724
C     1.1006418194     -2.2344779115     3.0873117321
C     2.4440534541     -0.4028636385     3.0226677671
C     2.2165833043     -1.6570281815     2.3760967846
C     2.5215043445     0.7878742258     2.1610392304
C     0.7734543289     0.8774420649     3.6371416894
C     1.4383850541     1.6228377436     2.5869719535
C     -0.5818653678     -0.9479355435     3.6859447123
C     -0.5715987668     0.4770324265     3.3921125109
C     -0.0207136426     -2.7156360342     2.3163024558
C     -1.1401664282     -1.8510051301     2.6814310825
C     0.1891085365     -3.0107548646     0.9858975775
C     2.3447068854     -1.7910984066     0.9417074514
C     1.4392690494     -2.6821867236     0.3144158206
C     2.8549506145     0.6835351061     0.7944742071
C     2.8632525777     -0.6523557969     0.1445276272
C     2.493414318     1.8213585565     0.0129609897
C     0.6826319326     2.3385593523     1.6394376802
C     1.4268393766     2.6798703793     0.4665911161
C     -1.3086290745     0.9975550672     2.2922797834
C     -0.7602555455     2.1138257037     1.5139823333
C     -1.9938789098     -1.3646777794     1.7030622445
C     -2.2732098926     0.0976640547     1.6591374996
C     -0.87301932     -2.8181788461     0.0277491927
C     -2.0285012938     -2.0761320856     0.3953013815
C     1.1339065824     -2.5709836237     -1.0852807539
C     -0.2949222661     -2.6956393624     -1.2923307626
C     2.7092886982     -0.6879906979     -1.2518251047
C     1.8779949017     -1.7095420277     -1.8887948008
C     2.4529413152     1.7822606306     -1.4428260964
C     2.5770191261     0.5334542866     -2.0714109584
C     0.7545458491     3.1484673595     -0.6838972243
C     1.4284229205     2.6730266758     -1.8840183734
C     -1.4187857139     2.4940687939     0.2789126939
C     -0.6371736855     3.0506007016     -0.817137701
C     -2.9991248033     0.5760895116     0.5735117497
C     -2.6223620475     1.8249860272     -0.0841395477
C     -2.7935437407     -1.5255362376     -0.6550966762
C     -3.5555466099     -0.3272529321     -0.4332108375
C     -0.9658777843     -1.9857710383     -2.3311228028
C     -2.2954577377     -1.5283550846     -2.0408418064
C     1.234822185     -1.1218922603     -3.0141903411
C     1.6923545612     0.2444445267     -3.1512417208
C     -0.1584163735     -1.1957863463     -3.235699837
C     0.4316651766     2.2887566521     -2.8092567395
C     -0.87884771     2.6308465029     -2.2075271626
C     0.5711451048     1.0591906593     -3.4855559408
C     -0.5895841562     0.161154629     -3.6166340755
C     -2.9590808323     1.649184463     -1.4631751535
C     -3.5685452538     0.3744495604     -1.6466195178
C     -2.7624281669     -0.3248745464     -2.6260716414
C     -1.9926310473     1.8851243265     -2.5122061445
C     -1.8539444933     0.5980665187     -3.2623055055


