54

 C     1.515537447     -0.0563646746     3.6843065356
C     0.7246996969     -1.2259228602     3.4873295022
C     1.2781027125     -1.951139946     2.3923287286
C     2.5939498873     -0.0353209391     2.7592690362
C     2.4330894609     -1.1646755924     1.895662684
C     2.6435883254     1.2729774235     2.1602512642
C     0.7070526217     1.0869743338     3.4130527378
C     1.3940170007     1.9527067566     2.4870019187
C     -0.6502283076     -0.8106568871     3.391814181
C     -0.6365690516     0.6607755615     3.1728373182
C     -1.4950297773     -1.5937824068     2.6682016096
C     0.4268896927     -2.6636351639     1.502531742
C     -0.9698873258     -2.7135045284     1.8898522231
C     0.7709226417     -2.7196564809     0.0670146578
C     2.6926182413     -1.0626612192     0.4928700627
C     1.8925994796     -1.8910255868     -0.4456754191
C     3.1513161362     1.3678292267     0.8758208225
C     3.2487907861     0.18086715     0.0357639107
C     2.6458605509     2.4081999997     0.0443374048
C     0.6494197453     2.614422619     1.4728012552
C     1.3869923764     2.9907766009     0.2838196398
C     -1.4183899648     1.2516817746     2.1436173169
C     -0.7919362348     2.3280503695     1.3423311381
C     -2.5839124997     -0.9812865239     1.9012428696
C     -2.5167477009     0.432957887     1.5722255019
C     -1.9581386572     -2.9811052025     0.9223073189
C     -2.9878887848     -1.9137277851     0.9427478841
C     -0.2757011041     -3.0678414904     -0.8421619396
C     -1.6260614163     -3.2228084622     -0.3943437182
C     -0.3738909669     -2.4266937819     -2.1416723377
C     1.872963958     -1.5045410228     -1.808123587
C     0.7017818152     -1.7378012226     -2.6362876867
C     3.0739926682     0.6206335641     -1.3394901248
C     2.7313363029     2.004900613     -1.3494716931
C     2.4274749475     -0.2230566109     -2.2537309637
C     0.7418629872     3.1144216821     -1.0303638887
C     1.5981566986     2.4851094989     -2.0519276069
C     -1.3966016654     2.6433653255     0.096693544
C     -0.6165842118     2.9806099424     -1.1108215199
C     -3.0657891902     0.7950282238     0.3167431786
C     -2.5354784174     1.9354469186     -0.3476218831
C     -3.2892604492     -1.5482120439     -0.4141513295
C     -2.4866700334     -2.3948353012     -1.2585857577
C     -1.7328102302     -1.8919064473     -2.3250404506
C     -3.363687893     -0.1917011058     -0.7250584635
C     -1.2291285923     2.2611865952     -2.246390038
C     -2.4157029048     1.6569176344     -1.7479370605
C     -1.9121365786     -0.5170229046     -2.7638177209
C     -2.7914273704     0.2995142393     -1.9761498643
C     0.4566403559     -0.5529995966     -3.4166736468
C     1.5539340452     0.3579209699     -3.2211358392
C     1.0188794087     1.6689745839     -3.0464932807
C     -0.7789187567     0.1283387925     -3.386029747
C     -0.4338919248     1.5432975409     -3.1356204194


