54

 C     1.3928385415     0.1415303862     3.8653970813
C     0.6464860984     -1.0834698688     3.6253315839
C     1.367494082     -1.9032618263     2.7256298156
C     2.5138367484     0.1472992317     2.9372940988
C     2.5983296989     -1.1543571754     2.3510212308
C     2.4575281658     1.3080755781     2.1312241692
C     0.5888841597     1.2395596407     3.6349921544
C     1.3007933724     2.0665327465     2.6642067192
C     -0.7001074596     -0.7003724678     3.3214457139
C     -0.7624756032     0.7593908051     3.2735903428
C     -1.393887884     -1.4197493829     2.3556385165
C     0.6564098319     -2.6696775154     1.717449558
C     -0.7497093486     -2.4890113202     1.6209787622
C     1.3554877226     -2.968637076     0.4859666236
C     3.0297469671     -1.2234777686     1.0402149105
C     2.5666734607     -2.3091658474     0.2178538724
C     2.6458089289     1.2144237729     0.6914942768
C     3.0711315948     -0.0406964594     0.1942876629
C     1.8912079892     2.1164971187     -0.2133919343
C     0.5623206893     2.7900877609     1.7997852312
C     1.0127713279     3.0415542861     0.4222499168
C     -1.5130637997     1.4155078204     2.2806546955
C     -0.9209660142     2.6470602074     1.758366554
C     -2.3299075014     -0.7677562218     1.4746076705
C     -2.3807838044     0.6443684521     1.3560872388
C     -1.4494033282     -2.6257697773     0.3502999605
C     -2.4802400391     -1.6307611299     0.3209313124
C     0.641361059     -3.1163837519     -0.7948184746
C     -0.7814194039     -3.0079426021     -0.8672619277
C     2.5579566826     -1.8867410047     -1.1540108031
C     2.714779954     -0.4804321381     -1.1565271582
C     1.4580768637     -2.4979726176     -1.8145561912
C     1.5671952309     1.7041567837     -1.6006893141
C     1.9376384183     0.3515422865     -2.0471389888
C     0.4480990594     2.3116705072     -2.2634666438
C     -0.1243757828     3.5376262709     -0.2443461695
C     -1.3283231337     3.164865303     0.5568595505
C     -0.3863233615     3.2227099111     -1.5491637064
C     -2.7792319284     1.2186531074     0.0418144144
C     -2.2712067606     2.5216124478     -0.323789852
C     -1.7769985406     2.7330062142     -1.6432765265
C     -2.9484511362     -1.1181248128     -0.8942843533
C     -3.0750713212     0.3424717381     -1.0441662448
C     -1.3637407012     -2.5478567135     -2.1148169492
C     -2.5204853666     -1.705198713     -2.0996055857
C     0.8513352601     -1.7851376935     -2.8553809775
C     1.1266980986     -0.3313604618     -2.9994815573
C     -0.5023080955     -2.0086020126     -3.1387752714
C     -0.4442460357     1.5356045318     -3.1204367758
C     -1.831768597     1.756471793     -2.6437292109
C     -2.6632251823     0.6379584278     -2.4047437829
C     -2.3251609577     -0.6011094681     -3.0445039927
C     -0.0749247376     0.2692871039     -3.5441600401
C     -1.0830842209     -0.7664983763     -3.6391511856


