54

 C     1.2268512488     -0.1388568095     3.2660878748
C     2.3166149438     -0.355392838     2.4003591435
C     2.2531897112     -1.7562487157     1.9455579108
C     0.3472820235     -1.2997753991     3.2096671782
C     0.9770808892     -2.3056058322     2.3956889017
C     -0.9636036681     -0.8682890566     3.0056522036
C     0.4340648005     1.03048229     3.2012442508
C     -0.9480048746     0.6172614454     3.0317201844
C     0.9250612491     2.1306501231     2.4702778335
C     2.7344375819     0.7129383439     1.4936364843
C     2.0511685517     1.9480921664     1.5711590555
C     3.2519820547     0.3190714783     0.2021913129
C     2.7011701505     -2.0652352626     0.6683743043
C     3.3200739495     -1.0357931908     -0.1243738216
C     1.8963794934     -2.8792169342     -0.2381841344
C     0.1920510302     -3.0807497819     1.5531228146
C     0.6875229438     -3.3895035316     0.2148099634
C     -1.8162350342     -1.5949502001     2.0915183307
C     -1.243136519     -2.7669325384     1.4319510765
C     -2.795033816     -0.8559054802     1.3885425129
C     -1.8424056808     1.3619284737     2.2292146571
C     -2.845701479     0.6255293663     1.4928458508
C     -0.0066476199     2.9765682101     1.825236506
C     -1.3504021048     2.6017502359     1.6308511324
C     1.7659529472     2.734357175     0.3431874091
C     0.5527171787     3.3930446516     0.5453366938
C     2.8792844385     1.052459515     -1.0350550979
C     2.0850320129     2.2200822368     -0.9697349294
C     2.9057760655     -1.2128443848     -1.5104532302
C     1.9440741259     -2.2406322124     -1.5661271151
C     2.6787892916     0.0622289145     -2.0788905168
C     0.7263503002     -2.041067909     -2.3503075697
C     -0.4488565813     -3.3865078782     -0.6682972071
C     -1.6382050617     -3.081308457     0.1172040703
C     -0.4863696167     -2.6528831293     -1.854494855
C     -3.1698022554     -1.2047071166     0.0292039725
C     -2.4731486955     -2.2292386604     -0.6423922385
C     -1.7846619183     -1.9308942822     -1.8861709608
C     -3.2872380318     1.1124652176     0.2621345067
C     -3.4275183093     -0.0012658337     -0.6677144841
C     -1.7247631223     2.9832240791     0.2570121508
C     -0.5055601841     3.400882347     -0.4295591778
C     -2.6435439211     2.1994191424     -0.4274930236
C     1.1001441173     2.434444625     -2.0287131357
C     -0.233222305     2.9849159406     -1.7256775471
C     1.605283862     0.2106730583     -2.9798962249
C     0.596753935     -0.8310390043     -3.0694551993
C     0.9400509464     1.4576512567     -3.0307895013
C     -1.8872640296     -0.6588096875     -2.4940987862
C     -2.7673957214     0.3268321751     -1.868154854
C     -2.3831030743     1.7481390444     -1.7917189884
C     -1.2166307755     2.1600462683     -2.4217912275
C     -0.7225538109     -0.1579556877     -3.1894650925
C     -0.4841316222     1.2164720236     -3.2247793571


