54

 C     1.5231008287     0.0134377564     4.0379655437
C     0.6887650697     -1.1880196887     3.749566357
C     1.4210188134     -2.039806858     2.9255571206
C     2.6084145064     -0.0024705636     3.0714719059
C     2.6105336835     -1.2470962234     2.4660580912
C     2.4551450927     1.13667223     2.168898928
C     0.7335780242     1.0974921122     3.7268617066
C     1.3446894396     1.9066557469     2.6660953004
C     -0.6301008697     -0.815449219     3.3548323922
C     -0.6563853393     0.6532924019     3.5078919592
C     -1.266447517     -1.4118807937     2.2104475171
C     0.8414200177     -2.640876209     1.8001725588
C     -0.5330598223     -2.4149383645     1.4350329135
C     2.7508523852     -1.4393693076     1.0627914756
C     1.8461315056     -2.5188751131     0.7340057036
C     2.6515137306     1.0003827459     0.7451766429
C     2.8530762988     -0.3418084605     0.149199182
C     1.9884713693     1.9549923747     -0.0657217003
C     0.5120580887     2.6598202235     1.8062799453
C     0.9547414261     2.8208879131     0.4605059927
C     -1.465540844     1.4182540405     2.7397153489
C     -0.9305482778     2.5998608451     2.0237568222
C     -2.3026917082     -0.61540706     1.5172407073
C     -2.4587298734     0.7761135789     1.8721981881
C     -2.6889369669     -0.9669689609     0.1956828192
C     -0.9093850159     -2.6896121781     0.0366752
C     -2.0325922172     -2.0479759736     -0.5352626341
C     1.5176983551     -2.7470087732     -0.5564743128
C     0.1275270313     -3.0902298404     -0.9080041719
C     2.5207881374     -0.595924529     -1.2557579643
C     2.0638938134     -1.9109861665     -1.5878263968
C     1.7362960986     1.7361927925     -1.4884056389
C     2.0391085924     0.4995766047     -2.1285755798
C     0.0339387814     3.087189149     -0.6197827626
C     0.5637553356     2.4908788645     -1.8301203642
C     -1.7866837851     2.7999129804     0.9515341156
C     -2.7969573626     1.7236836657     0.8962695357
C     -1.3481296003     3.0523946301     -0.3879826986
C     -3.0975108115     0.0191357377     -0.7788258374
C     -3.0272664348     1.3835799401     -0.4503171002
C     -2.2167164374     2.2792567704     -1.2886584697
C     -2.1312290109     -1.7714974176     -1.9629033777
C     -2.6896633233     -0.4299161967     -2.0953931502
C     -0.0031854124     -2.8788637877     -2.2732556568
C     1.2314917992     -2.1681313286     -2.733660516
C     -1.1247658172     -2.2057442628     -2.8486680993
C     1.2708117064     0.1887909114     -3.3198472001
C     0.8894355538     -1.1882163098     -3.608183469
C     -0.5906685607     -1.2582989509     -3.8139424861
C     -0.313040792     2.0251438526     -2.8272816854
C     -1.7362508198     1.8190740148     -2.4956886502
C     -2.1172954939     0.4919091771     -2.9947556074
C     0.1162028481     0.9546586207     -3.6240852755
C     -1.0406762188     0.0361328358     -3.8325031481


