54

 C     1.5463281631     -0.0892759091     4.5123633142
C     0.7346426545     -1.3060688377     4.5544055455
C     1.3508926399     -2.2759606117     3.7923288806
C     2.6257767011     -0.3204707988     3.5168793873
C     2.5080276631     -1.6373622413     3.0702375773
C     2.565323491     0.7170230308     2.49883548
C     0.7425302483     0.8748895385     3.9281684076
C     1.4310087865     1.5422644928     2.8306963626
C     -0.5902499864     -1.047274694     3.9565584645
C     -0.6070700853     0.3126954789     3.5922841676
C     0.4382640928     -2.7433336011     2.7826362683
C     -0.8133944159     -1.9976824991     2.8801027621
C     2.3450471458     -1.9077406996     1.6676557133
C     1.0900320414     -2.6558607918     1.536695228
C     2.782458541     0.4412338745     1.1100926073
C     2.6406403944     -0.9408971175     0.6546003144
C     2.3360092575     1.4471570743     0.2080657559
C     0.6993625798     2.2156793668     1.845065611
C     1.3602764052     2.397934663     0.6039446638
C     -1.2619198152     0.7649046195     2.4161984461
C     -0.7623865615     1.9856589579     1.7713171099
C     -1.4558293439     -1.579657511     1.6911453527
C     -1.9126068366     -0.2023511191     1.5484781495
C     0.3404498552     -2.5304926804     0.3480639668
C     -1.0428056711     -2.1618520626     0.4129166779
C     2.1260035012     -1.1788638008     -0.6801313225
C     1.0758459101     -2.1477710371     -0.8258955745
C     2.118374436     1.209538153     -1.2116856333
C     2.1151677084     -0.1145109456     -1.7107485405
C     0.6524463633     2.8370542777     -0.5867291275
C     1.1923785862     2.1893523957     -1.7511627457
C     -1.419390283     2.4126589457     0.6408422851
C     -0.7193799104     3.0651971363     -0.4937044226
C     -2.5138668229     0.2279598005     0.2995026651
C     -2.4882904482     1.6305939334     0.0364433746
C     -1.7317673752     -1.8303540531     -0.8095948689
C     -2.6394251861     -0.6913168369     -0.8466809342
C     0.3530203376     -2.2373748281     -2.0307089035
C     -1.0871924143     -2.244136103     -2.020037349
C     1.4625360572     -0.317401682     -2.9638362996
C     0.8013583464     -1.5740171144     -3.2270473808
C     0.393344536     1.9401149382     -2.9207754262
C     0.668809723     0.7178556005     -3.6313190098
C     -1.4955046496     2.8999272485     -1.6568051178
C     -2.6855448082     2.1167385558     -1.2877117007
C     -0.9831939631     2.4376286909     -2.9001058975
C     -2.9743542954     -0.1548110409     -2.1467121034
C     -2.9680468236     1.2693173919     -2.3325930119
C     -2.03097217     1.5857049409     -3.4480908837
C     -1.4852412278     -1.7255157591     -3.3094671297
C     -0.2851357702     -1.3725191287     -4.0916367673
C     -0.3843480209     0.0284059998     -4.3527440824
C     -2.4127255211     -0.7043440908     -3.3595415747
C     -1.74571375     0.4217285098     -4.1110587211


