54

 C     1.5324073118     0.0164816866     4.0466508565
C     0.7285792556     -1.1665386245     3.7193628837
C     1.491948775     -2.0350174138     2.9222482596
C     2.6111664975     0.0100329387     3.0838760688
C     2.6803886069     -1.247277091     2.477688188
C     2.4705243904     1.1700822949     2.2024477992
C     0.7222494669     1.1040241877     3.7074875105
C     1.3327938196     1.9212463798     2.6760389067
C     -0.611505384     -0.7938020383     3.323091755
C     -0.6515824031     0.6574610121     3.4659859978
C     -1.2412706157     -1.406548905     2.1935350834
C     0.9271197262     -2.6200775509     1.7908895342
C     -0.4840121617     -2.4560592327     1.5001056446
C     2.8156741029     -1.4140547541     1.0833353235
C     1.8701230753     -2.4277516043     0.6805176243
C     2.7283978566     1.0667895989     0.7980599786
C     2.9718265592     -0.2705165409     0.2078210667
C     2.0790702387     2.0364994988     -0.0278241042
C     0.5035544418     2.6745210609     1.7910009952
C     0.9877654596     2.856336394     0.4602320682
C     -1.4585091621     1.4069199788     2.6609594688
C     -0.9332928792     2.5869205123     1.9684306568
C     -2.2357293139     -0.6353212925     1.4107240569
C     -2.4000376614     0.747493422     1.7537060295
C     -2.6129470278     -1.0434544775     0.0552344347
C     -0.8806870699     -2.8042994609     0.2051324744
C     -2.0456934736     -2.2694217903     -0.4272079996
C     1.469548891     -2.6021611265     -0.6506968833
C     0.1269616424     -3.0993840304     -0.8534530975
C     2.6514256586     -0.4828172291     -1.1505588889
C     1.9993934803     -1.7007651276     -1.6255443219
C     1.8800321459     1.8222767837     -1.4436053154
C     2.1898035676     0.5838805835     -2.0076857434
C     0.0928462997     3.1094603773     -0.6557720416
C     0.6677096621     2.5094108466     -1.8470535784
C     -1.7711804856     2.7818706776     0.8649274359
C     -2.7372919126     1.6952631767     0.7652471844
C     -1.295171468     3.0567718421     -0.4518539491
C     -2.9995864239     -0.0326588407     -0.9672061834
C     -2.9079144011     1.3456409553     -0.5892789518
C     -2.1179394297     2.2897973757     -1.3810111303
C     -2.7478202739     -0.2933143641     -2.3643476969
C     -1.8801442901     -2.5047453821     -1.8374981682
C     -0.4809468784     -2.9435510829     -2.0795609137
C     -2.2142198998     -1.5781592124     -2.7788069921
C     1.2850143107     -1.4252399325     -2.846710203
C     1.3696546774     0.0217225994     -3.069352152
C     0.0730613742     -2.1058885213     -3.1174705001
C     -1.0403392263     -1.3641419646     -3.6691259248
C     -0.1431190189     1.9609994456     -2.8356694189
C     -1.595044038     1.8790633869     -2.6048868944
C     -2.0779100423     0.67227276     -3.1663457089
C     0.2573419897     0.7383323736     -3.5273235054
C     -0.9524883528     0.0013954516     -3.8388870285


