54

 C     1.3086021585     -0.0912416983     3.5499731249
C     2.4662081297     -0.3494052141     2.84935123
C     2.3904260781     -1.7201864962     2.3313425186
C     0.4652738064     -1.2908486074     3.4965081453
C     1.0954289728     -2.2592230661     2.6424045245
C     -0.8464453766     -0.8718541779     3.2477647153
C     0.4925358868     1.0580541587     3.2326807794
C     -0.8730034421     0.5996998392     3.0682489958
C     1.0012766054     2.012517606     2.3501137509
C     2.8935244842     0.5225978434     1.7795235002
C     2.2299277932     1.7385099087     1.6064936008
C     2.8507070637     -1.6963750374     1.0101266019
C     3.1717204909     -0.3023345482     0.6202489531
C     2.2483658121     -2.5527868127     0.0599665579
C     0.3124834953     -2.8982497739     1.5842449823
C     0.9466255208     -3.1167884779     0.320544417
C     -1.6800219854     -1.6766970341     2.4375556287
C     -1.0981046957     -2.6607826689     1.5580822469
C     -2.7239608742     -1.0339203141     1.7328583838
C     -1.7486894155     1.2128293242     2.1309057157
C     -2.7563902591     0.3549911059     1.5272744153
C     0.1073098036     2.7262396073     1.4670771493
C     -1.2691867893     2.3639746058     1.3545345484
C     2.0685594094     2.2888516471     0.2800645775
C     0.8627505875     3.092220602     0.2860700613
C     2.9247054599     0.1705916118     -0.6975863412
C     2.4258968277     1.5399157062     -0.8818512453
C     2.2789455974     -2.1496439917     -1.2950645849
C     2.5540649897     -0.8293206952     -1.686787192
C     0.1889487855     -3.0874916769     -0.9506387213
C     1.0467252906     -2.5796654569     -1.9385776018
C     -1.8630570757     -2.6298629577     0.2913023775
C     -2.9013489357     -1.6991850301     0.4509261867
C     -1.202917545     -2.7286171012     -0.982092382
C     -3.2137588023     0.5736459193     0.1489702827
C     -3.2280830093     -0.7304419004     -0.5341540379
C     -1.9167299398     2.6692219068     0.0898079364
C     -2.8372502498     1.6981715213     -0.5349716174
C     0.2136943718     3.4115189968     -0.9039921044
C     -1.2140362932     3.288965123     -0.9468387446
C     1.7079655722     1.8608601564     -2.1039767906
C     0.7272433172     2.8560302698     -2.1217649674
C     1.6333446387     -0.5073314686     -2.7846553525
C     0.6445352103     -1.5940942222     -2.8779891551
C     1.247635084     0.7871798653     -3.0072778795
C     -1.6507688827     -1.8590652175     -2.0424687878
C     -2.6640122891     -0.8462533804     -1.8039317691
C     -0.7099940905     -1.2820288101     -2.9865674821
C     -2.5313420594     1.6254785963     -1.9736074162
C     -1.5857543655     2.6571830283     -2.2326807034
C     -0.4176332984     2.3966737587     -2.9396654017
C     -0.131193297     1.0902089937     -3.4262561058
C     -2.3291553041     0.3594379539     -2.5576333435
C     -1.112592982     0.0881261711     -3.293936158


