54

 C     1.190842787     -0.094765364     3.8561709767
C     2.2875771197     -0.2646920801     3.0382657339
C     2.1170825729     -1.512514376     2.26650402
C     0.3173789551     -1.2797690138     3.646074816
C     0.8827112684     -2.1090877098     2.5946550996
C     -0.963751911     -0.8054440307     3.5070712734
C     0.3722785396     1.1088098678     3.7483143039
C     -0.9822008505     0.662196587     3.5917553119
C     0.8317413131     2.1627109236     2.9453292365
C     2.7216479276     0.7561497191     2.1303679627
C     2.087790284     2.0103659441     2.2106299326
C     2.4972758512     -1.2600877905     0.9305668502
C     2.9124049594     0.1291433624     0.8214923797
C     1.8460102022     -1.9450290588     -0.1353089332
C     0.0665772084     -2.6152730363     1.5267604225
C     0.6982475058     -2.7822710782     0.2181685437
C     -1.7959542694     -1.2362262663     2.4186053123
C     -1.3620496278     -2.2829269167     1.5484915076
C     -1.7819725256     1.1054182385     2.5221067226
C     -2.3956799984     -0.0619399243     1.8649246751
C     -0.1010312408     2.8250251117     2.0179516231
C     -1.379739708     2.2357959209     1.7197707827
C     1.9585569042     2.7336597234     0.9887253582
C     0.6622543211     3.3463616302     0.9253987031
C     2.7006883813     0.8180017083     -0.3989412827
C     2.2932238477     2.1975927029     -0.2853432678
C     1.9706415367     -1.3743624975     -1.4756035185
C     2.3189480568     0.0486230112     -1.5896639649
C     1.2239029656     -2.0040058946     -2.5440224432
C     -0.1348667059     -3.219368701     -0.8604079499
C     0.2157673713     -2.9305261964     -2.2190676678
C     -2.0831656041     -2.37208174     0.3236021553
C     -1.539760631     -3.0667377215     -0.755985093
C     -2.7953836296     -0.0150486523     0.4945520198
C     -2.7806219986     -1.2200734951     -0.2360563725
C     -1.8537960478     2.278500533     0.3537331373
C     -2.5664078677     1.2014244922     -0.2451678688
C     0.2244148577     3.3177230121     -0.4207485397
C     1.3267661286     2.7265087952     -1.2211373054
C     -1.0640239439     2.8864166568     -0.7153791864
C     1.7105052641     0.7854092643     -2.6654460942
C     1.062710017     2.0603382394     -2.3838147853
C     0.7180953138     -1.2191429193     -3.666759535
C     0.9131910103     0.1413870925     -3.6537252265
C     -1.0083471224     -2.5532636613     -2.9782270991
C     -2.0331830646     -2.47835106     -2.0224905324
C     -2.666871659     -1.2600599799     -1.7017810863
C     -0.7229086643     -1.460784383     -3.7850964835
C     -2.3004649195     1.1619314603     -1.6856781162
C     -1.3598758715     2.2072892825     -1.9604900913
C     -0.3242155245     1.9502165214     -2.8872271274
C     -0.3986792368     0.8182535761     -3.7054711599
C     -2.3314399701     -0.0604904966     -2.4456786621
C     -1.4028398982     -0.190929313     -3.5652694774


