54

 C     1.1907807542     -0.0526915976     3.9108913392
C     2.4231817593     -0.3098624349     3.332019596
C     2.308773379     -1.5590955342     2.4946650538
C     0.3346724624     -1.2144251748     3.6048017247
C     0.9954532717     -2.0536082579     2.5939028877
C     -0.9572693792     -0.7970989183     3.4456536223
C     0.4353446986     1.1068392509     3.4803118733
C     -0.9396762005     0.6765023918     3.4081385643
C     0.9627025834     2.0029998792     2.4677490554
C     3.0906134193     0.6552886502     2.5950936592
C     2.3662162564     1.8263861816     2.1430170495
C     2.9309344453     -1.3323435577     1.2534155705
C     3.565377857     -0.0104899187     1.3672601875
C     2.2703513023     -1.7084485843     0.0447200675
C     0.2899093774     -2.4464683418     1.4163464462
C     0.986567967     -2.4088024654     0.128385707
C     -1.7427052092     -1.2722873275     2.3577945925
C     -1.1826522259     -2.2387532835     1.4131102567
C     -1.7640223683     1.0528304948     2.3668754627
C     -2.450274506     -0.1576692019     1.8401214755
C     0.0452285582     2.4692286031     1.393901184
C     -1.3655305246     2.0675567606     1.4237582336
C     0.5882253226     2.7956317104     0.0706141782
C     2.8266712223     2.080046838     0.7996188827
C     3.5414870707     0.8793806919     0.3298776238
C     1.9565329552     2.4393103078     -0.2099293111
C     2.5189815452     -0.8593244819     -1.1505896904
C     3.0144073199     0.5004697     -0.9369152476
C     2.2248746513     1.5845439725     -1.3978216242
C     1.7187737767     -1.0332803138     -2.2654434882
C     0.2176502023     -2.632060371     -1.1019535123
C     0.7081239521     -2.0840432445     -2.3392574815
C     -1.8680646284     -2.3699301787     0.2187508423
C     -1.2091938368     -2.7985394847     -1.0113499165
C     -3.0382933491     -0.1904984438     0.5580545173
C     -2.9603047029     -1.4557186984     -0.1540290311
C     -2.1580654795     2.1286718649     0.248341932
C     -3.0548191988     1.010264759     -0.1854264647
C     -0.2590708087     2.8363398639     -1.066875284
C     -1.6491634894     2.6997968315     -0.9285104165
C     1.2813653739     1.4192397467     -2.4336808994
C     1.2361837805     0.1081196305     -3.0604583574
C     0.0960526376     2.1844498971     -2.367676361
C     -0.1767692216     -1.7208448817     -3.3880032108
C     0.1004823751     -0.3109938021     -3.7437797834
C     -2.0654203346     -2.4246583007     -2.079949804
C     -3.0844482603     -1.497871045     -1.5379413717
C     -1.5575627607     -1.8486233346     -3.2435819835
C     -3.0580793428     0.9641938511     -1.6258546387
C     -2.1763868729     1.9782432226     -2.0779895967
C     -1.1147005639     1.6884017261     -2.9718115784
C     -1.1306527537     0.4282851927     -3.681216761
C     -3.081179143     -0.2985863232     -2.3303093918
C     -2.1816151664     -0.4960045162     -3.4168363694


