54

 C     1.257801092     0.1427807804     3.7962896327
C     2.4047166877     -0.0134645188     3.0038596351
C     2.3833433562     -1.3668759965     2.4322009536
C     0.3917283648     -1.013789546     3.4951458076
C     1.081155262     -1.9208047825     2.6350899516
C     -0.9430227419     -0.5895771791     3.2485180706
C     0.4621644847     1.2681898565     3.6036197981
C     -0.9563918397     0.8310748798     3.4581920197
C     0.7308731839     2.2250056544     2.5970764508
C     2.7087570717     0.8916935879     1.9516569032
C     1.8416551954     2.0226978943     1.6861981224
C     2.9418274621     -1.3247169235     1.1435350584
C     3.2019864182     0.0816960288     0.8278902351
C     2.4050795818     -2.1690659153     0.1645232826
C     0.3744861422     -2.5570778802     1.550775928
C     1.1543866552     -2.8718083799     0.3972917726
C     -1.6888857964     -1.1693063016     2.1570450013
C     -1.0674686764     -2.2666427431     1.3722463982
C     -2.6264065027     -0.3079425509     1.5159052782
C     -1.5983444646     1.6815699552     2.571863121
C     -0.58307701     2.6334036383     2.0676287557
C     -2.540002849     1.134273692     1.6691841288
C     -0.7101119869     3.1271915731     0.8052508454
C     1.6802551036     2.4701816604     0.2934162619
C     0.4659811995     3.1603930295     -0.0781168394
C     3.0315399467     0.5016541153     -0.4712576931
C     2.3322432778     1.7443574222     -0.762592943
C     2.4322205059     -1.7825924188     -1.2263592419
C     2.7477548096     -0.4525205323     -1.5417417326
C     0.5453235329     -3.1119625274     -0.888048462
C     1.3485938104     -2.455420031     -1.9158567138
C     -1.6401213831     -2.5806272139     0.1253743945
C     -0.8495601275     -3.1084198856     -0.9897727791
C     -3.0750744088     -0.561791328     0.1717742169
C     -2.7084348236     -1.7520075452     -0.4581784099
C     -2.7329555756     1.7234243617     0.3824453694
C     -1.8886260257     2.7864061708     -0.0240054325
C     -3.0908702641     0.6791569992     -0.5690705803
C     -0.0283751972     3.0812350567     -1.3876900804
C     -1.4698831695     2.8222446096     -1.35939006
C     1.7485059397     1.6019981426     -2.0696952305
C     1.9811112641     0.2388358052     -2.5499618888
C     0.5466236115     2.256316772     -2.3854512662
C     0.7245747516     -1.8341500031     -3.009545586
C     1.0077255177     -0.4342828745     -3.2857183163
C     -1.4456285905     -2.644617471     -2.2049968944
C     -2.5637200911     -1.7566025675     -1.8620664793
C     -0.6926436639     -2.027441041     -3.1938026116
C     -2.6542904369     0.7142734945     -1.9373462001
C     -1.772710769     1.8019570991     -2.3054196536
C     -0.5354606441     1.5135915051     -3.0123758361
C     -0.2967778852     0.2237881261     -3.5406094537
C     -2.4559277286     -0.5501337628     -2.6073362733
C     -1.3176415369     -0.7357499915     -3.4875907156


