54

 C     1.3642660615     0.0553004912     3.7435259817
C     2.5149438415     -0.1332852807     2.9541666278
C     2.4291361555     -1.4888740037     2.3550323015
C     0.4884174665     -1.143103485     3.5911200718
C     1.1752750799     -2.0585054485     2.7391864907
C     -0.8084119367     -0.7008553816     3.2488091011
C     0.5876931811     1.1912445017     3.5496896901
C     -0.7884932268     0.7508031936     3.3233148628
C     0.9232989928     2.1673608648     2.5534615633
C     2.889426283     0.792257788     1.9629228473
C     2.1236396561     2.0202839247     1.7702700165
C     2.7943184804     -1.4081830416     1.0081996235
C     3.2207971903     -0.0220891882     0.7734594176
C     2.0760207653     -2.1301349995     -0.0186906873
C     0.4388216425     -2.7336103052     1.7515503931
C     0.9720172567     -2.9196659178     0.4269163165
C     -1.5713964044     -1.3423686267     2.2031574741
C     -0.9879376322     -2.5021295584     1.6136386389
C     -2.4597839363     -0.5168229057     1.3561391947
C     -1.3359824378     1.5283578245     2.3180819152
C     -0.3139457415     2.5159660853     1.8874619221
C     -2.2780416947     0.9648024784     1.3836219139
C     -0.3329925215     3.0230803655     0.58030976
C     2.0997520372     2.5674849976     0.4419796627
C     0.9131536984     3.1419638094     -0.1274467518
C     3.1604600667     0.5177179272     -0.4860372218
C     2.8204024044     1.9078561613     -0.6300058896
C     2.0060339572     -1.5436944027     -1.3743948357
C     2.5636270089     -0.2347041728     -1.5962938311
C     0.9539942073     -1.9359262621     -2.2373630572
C     -0.1462498682     -3.2069892348     -0.4509157975
C     -1.3711361052     -2.9431464986     0.2982095594
C     -0.08565102     -2.87251225     -1.7964031284
C     -2.9749058879     -1.090578762     0.1749965207
C     -2.4715316578     -2.3686392627     -0.3333401992
C     -3.3013601292     -0.2727458149     -0.9996491543
C     -2.5161773381     1.7245139309     0.2300402652
C     -1.537392094     2.7679147306     -0.1866679168
C     -3.0486543729     1.1242061597     -0.964343704
C     -1.490650067     2.7423562325     -1.5756370753
C     -2.4112231387     1.738465932     -2.0745937401
C     0.9418683689     2.8528028349     -1.5688121779
C     2.088625923     2.032847638     -1.8198080426
C     1.9103442345     0.7248284504     -2.4269427486
C     -0.2298078791     2.5765004111     -2.2542075947
C     0.3159845794     -0.9854029359     -3.1439370794
C     -1.746679422     0.9474868754     -3.0473443325
C     0.6905223622     0.4133739174     -3.1153841668
C     -0.3559980294     1.3863996282     -3.1139272837
C     -1.2983390878     -2.538654354     -2.4779546052
C     -2.4705712977     -2.2948136915     -1.7667842135
C     -2.9959696882     -0.9913920981     -2.177689979
C     -1.0363100269     -1.3675134433     -3.3170623267
C     -2.0972482494     -0.4298358783     -3.1576246315


