54

 C     1.4924913195     0.0850645761     4.0371780901
C     0.7228706181     -1.0805733942     3.6510245844
C     1.5256124014     -1.9716646543     2.9365516137
C     2.6422902196     0.0739660296     3.1621520629
C     2.7419023598     -1.2037323148     2.5525098435
C     2.6438050278     1.2599967856     2.337014201
C     0.7220544745     1.2009643674     3.6551849455
C     1.4955142706     2.0476536185     2.7893781667
C     -0.577246562     -0.6665371327     3.1092184069
C     -0.5699902218     0.7742041663     3.1427492392
C     -1.1812310507     -1.36801603     2.0366318541
C     1.001685877     -2.5804082435     1.7861167106
C     -0.4115850905     -2.4880931026     1.458862713
C     2.8710731113     -1.3299639308     1.1625004936
C     1.9518979137     -2.3847400843     0.7150495923
C     2.9031621436     1.1699799814     0.9224156144
C     3.030577408     -0.1678342582     0.3050697843
C     2.3490381558     2.2148672147     0.0999068555
C     0.8039307228     2.8652763442     1.8997780181
C     1.3940158999     3.1119612844     0.6397457469
C     -1.2603954732     1.5135436264     2.1323049112
C     -0.6347063055     2.708733867     1.6651977214
C     -2.1519515236     -0.6712914426     1.1813929274
C     -2.1959803125     0.7806187607     1.2644926824
C     -2.6769202951     -1.3612247665     -0.0182005432
C     -0.7561798748     -2.9383695251     0.1896981103
C     -1.9942082195     -2.5482539623     -0.4674670967
C     1.5587114384     -2.5392056687     -0.6187196334
C     0.2592442347     -3.1308781671     -0.8379910154
C     2.6168425441     -0.3393582446     -1.040713586
C     1.9983359489     -1.5455338265     -1.5485231975
C     1.9158820486     1.9868217007     -1.2744145632
C     2.0758252547     0.7523195089     -1.8425371373
C     0.3553213279     3.3816708978     -0.3436410784
C     -0.8939317544     3.1609958659     0.3124109432
C     0.6500086418     2.7073306837     -1.5365394465
C     -2.7089653061     1.4976025964     0.1303762176
C     -1.9143211783     2.6039826775     -0.4279336722
C     -3.3369432246     -0.5843759955     -1.0506837508
C     -3.3177601003     0.834387214     -0.9327416018
C     -3.1301619521     -0.8771375772     -2.4607736431
C     -1.8241329529     -2.8237508428     -1.8604250509
C     -0.3855387365     -2.9905412936     -2.0684011419
C     -2.2879535321     -1.9117565186     -2.8169119616
C     1.180868165     -1.2144398544     -2.6900544255
C     1.1157062415     0.22270682     -2.8064202791
C     0.0534868471     -2.0097258879     -3.0278659318
C     -1.0992889121     -1.3518544023     -3.5361479643
C     -0.3915657861     2.1344641417     -2.3445938841
C     -1.7237214117     2.3089966864     -1.8312652214
C     -2.7572149751     1.3818638336     -2.1802726378
C     -2.5626616341     0.3482720904     -3.0600118486
C     -0.1055047603     0.895991353     -3.103913464
C     -1.2220934904     0.0550244686     -3.5477482936


