54

 C     1.5267471032     0.1716990312     3.9128965925
C     0.7078553032     -1.042687141     3.731572142
C     1.4640836085     -1.9392252246     2.9989309486
C     2.6390785106     0.0812035332     2.9763087913
C     2.6782673755     -1.2189230263     2.4923538352
C     2.5980211231     1.223805967     2.056834975
C     0.7592509439     1.2456177486     3.5233385893
C     1.511982262     2.0488071146     2.5618373182
C     -0.5955035707     -0.6530406127     3.2354963063
C     -0.5924762611     0.7977022501     3.1399701899
C     -1.245196943     -1.4031302642     2.226595082
C     0.8848330415     -2.6307656029     1.912444935
C     -0.5198103727     -2.5521656334     1.6608227055
C     2.7285570836     -1.4545764902     1.1008666231
C     1.7883865156     -2.5075547113     0.7817759661
C     2.7178123601     1.0487060859     0.6501810514
C     2.8902495312     -0.3428061239     0.1579887477
C     2.0869864284     2.0523824146     -0.2496489759
C     0.7959504198     2.8210828401     1.7117398239
C     1.253548258     3.0378707269     0.3615247028
C     -1.3105409327     1.4897565103     2.1466704142
C     -0.6933306167     2.7236162575     1.6649071488
C     -2.2353836722     -0.7098953349     1.3728590671
C     -2.2122593707     0.7557658051     1.2568914611
C     -2.802141028     -1.4669218227     0.3102412427
C     -0.9344640568     -3.0572393056     0.3970795982
C     -2.1864415755     -2.7197501664     -0.1148532593
C     1.3423289427     -2.7343131621     -0.5425623251
C     0.0113318794     -3.2049155234     -0.7275104076
C     2.5706626778     -0.6323095591     -1.1659058469
C     1.9308443621     -1.9083821303     -1.5552301063
C     1.7889132764     1.7130217304     -1.6567609119
C     2.1295904954     0.3970026142     -2.1044031889
C     0.6647883198     2.319041189     -2.3333729707
C     0.1281443117     3.5935809905     -0.3259777358
C     -1.0791079275     3.2821315227     0.4752143819
C     -0.1597110363     3.2470153139     -1.6164625774
C     -2.6339381488     1.3918180759     -0.0012644213
C     -2.0454092105     2.6462932175     -0.3945546258
C     -1.5711823135     2.8289033018     -1.7218370348
C     -3.2726715949     -0.824391014     -0.8735026401
C     -3.0461534621     0.5474329242     -1.0933296114
C     -2.0969576526     -2.7027384401     -1.5619540193
C     -0.7240501921     -2.9258356299     -1.9385479479
C     -2.7563134341     -1.5635220957     -2.0101798027
C     1.2092518418     -1.6705132683     -2.729140826
C     1.3483456246     -0.255210394     -3.0781549909
C     -0.1390841129     -2.0757821995     -2.9143749427
C     -0.2528773289     1.5204031962     -3.1331814957
C     -1.6242100809     1.7846079953     -2.6700162123
C     -2.4899182094     0.7154061232     -2.4447673602
C     -2.1531000838     -0.6180468433     -2.9280464525
C     0.0905643774     0.2195339091     -3.5120449928
C     -0.8741428287     -0.8895666692     -3.4197569672


