54

 C     1.54161337     -0.1720567715     4.1247838836
C     0.7883721581     -1.3077320869     4.1216603589
C     1.2951369104     -2.2935589793     3.1703541954
C     2.4916375408     -0.3238881045     3.0165382226
C     2.2905197706     -1.6473081369     2.3750212194
C     2.3798930558     0.7888593788     2.2126674265
C     0.6557666155     0.9563603027     3.7941301361
C     1.2796497662     1.6537913008     2.7646004294
C     -0.6010650197     -0.9900329065     3.7460380659
C     -0.6616846206     0.4268553241     3.4613568614
C     0.1562375141     -2.828150235     2.522474628
C     -1.005679295     -1.903953999     2.7770422594
C     0.3119442624     -3.3060961628     1.2470596151
C     2.2430082652     -1.7590813612     0.9320302216
C     1.4092524059     -2.7949620007     0.4210189221
C     2.5349278125     0.7327215169     0.7701365713
C     2.4332336363     -0.5644339209     0.0641551344
C     2.2103104698     1.9090035074     0.1129195193
C     0.5242276863     2.4370960492     1.8787676984
C     1.2531308569     2.8796733654     0.7411268189
C     -1.3636115364     0.88971763     2.2965850774
C     -0.890582643     2.1400762749     1.7114803897
C     -1.8344793441     -1.4898556476     1.6581718747
C     -2.043371761     -0.0650970408     1.4146485393
C     -0.8383387168     -3.3718027042     0.4138546061
C     -1.8732563993     -2.3908124806     0.5544706062
C     0.942265243     -2.7779619293     -0.9356332129
C     -0.4063801494     -3.274464456     -0.9316097997
C     2.0255252226     -0.5561947271     -1.3216451904
C     1.2940459218     -1.7400845793     -1.8551062273
C     1.9819278609     1.9598629963     -1.2981502363
C     1.8673940847     0.7315636258     -2.0465269694
C     0.6107828371     3.5556691594     -0.2759738377
C     1.1228016832     3.0676599751     -1.5680043237
C     -1.5168299383     2.6262620837     0.538658349
C     -0.8049791016     3.4948789265     -0.3518682402
C     -2.4800438259     0.3740297147     0.0731473505
C     -2.3074698173     1.7319974663     -0.2771112797
C     -2.2716438575     -1.9516464703     -0.7841048453
C     -1.4041319534     -2.6475734616     -1.7236169721
C     -2.6191833359     -0.6103903355     -1.0390374281
C     0.4313854173     -1.5931742304     -2.9775987328
C     -0.975822568     -2.0307119778     -2.8768131985
C     1.0513747575     0.8179736939     -3.2168757842
C     0.3986239383     -0.3738810903     -3.7289442345
C     0.0573315094     2.9639109947     -2.4813812517
C     -1.1693722653     3.2037200178     -1.7140193909
C     -2.1375180099     2.171650192     -1.6856991936
C     0.0988257923     1.907510536     -3.4041995128
C     -2.483069856     -0.1660853803     -2.420045237
C     -1.7561717917     -0.9386828903     -3.3570472447
C     -0.9154400951     -0.0629398697     -4.1592891194
C     -2.1667697832     1.2389701883     -2.7270614876
C     -1.1542506903     1.2727997358     -3.75753603


