54

 C     1.1023554061     0.070399981     3.7205394161
C     2.2305675996     -0.2414963083     3.0290294089
C     2.1503034505     -1.6417886171     2.5758416741
C     0.2297196877     -1.1385965134     3.7031889479
C     0.8087709727     -2.0909104062     2.7874021957
C     -1.0345059081     -0.6856623994     3.4624415281
C     0.2984674162     1.2404751249     3.358079912
C     -1.0437658729     0.7962413193     3.4179655289
C     0.7074305656     2.0893238169     2.2701364515
C     2.6880736571     0.5635447331     1.9081372482
C     1.9776060509     1.7704526212     1.5579156855
C     2.7382759562     -1.7014561586     1.3146713345
C     3.1531494126     -0.3398141058     0.8966528794
C     2.165618842     -2.5616461054     0.3674997492
C     0.0280195634     -2.5939009481     1.6610077266
C     0.778112309     -2.9558765275     0.5132221229
C     -1.8755907278     -1.1721480437     2.3989832081
C     -1.3613402831     -2.1047948128     1.4432864008
C     -2.0240861954     1.1925232007     2.496762818
C     -2.6580713667     -0.0323644326     1.9660822208
C     -0.3537770605     2.6751045209     1.4955089157
C     -1.7154133818     2.2291378485     1.6094671624
C     -0.173755996     3.0620454988     0.1100849135
C     2.125984383     2.1905736505     0.2130778655
C     1.0711822887     2.9366395491     -0.4872997076
C     3.1606129199     0.0259672519     -0.4820210951
C     2.7848567547     1.3681014059     -0.7786830279
C     2.3632507413     -2.2545264094     -1.0040651506
C     2.8340339583     -0.9979456007     -1.4641481978
C     0.1885582461     -2.9639717223     -0.8339346488
C     1.2175574911     -2.6713689101     -1.765367809
C     -1.9487099239     -2.0842520183     0.0878581413
C     -1.1439518928     -2.5174946454     -1.0714408928
C     -3.2138391525     -0.0170191756     0.7200398317
C     -2.9995465833     -1.1408712961     -0.170303322
C     -2.3335374723     2.2623577375     0.2833587699
C     -1.3932526126     2.7903038325     -0.655218076
C     -3.2077555033     1.220078155     -0.0950126536
C     -1.3397875591     2.3045193547     -2.0188747731
C     1.1299846783     2.6093619568     -1.8705726981
C     2.1702376734     1.6612534695     -2.0422662404
C     -0.028143588     2.1804498063     -2.6079470745
C     2.0564991047     -0.6786377727     -2.6576640433
C     1.0337683538     -1.7351964346     -2.8223403299
C     1.7162409896     0.6402857593     -2.9372595681
C     0.3544560067     1.0028115044     -3.3660949631
C     -1.3688277561     -1.9134667688     -2.3712919763
C     -0.2538782923     -1.402087043     -3.1699202767
C     -0.595042628     -0.0079103669     -3.5631452256
C     -3.235155443     -0.6285691625     -1.4860002286
C     -3.258819421     0.8280188648     -1.4388046351
C     -2.3330093995     1.3366586107     -2.4248960951
C     -2.4274223475     -0.9923031949     -2.5529822986
C     -1.9427081515     0.2194463561     -3.2306870892


