54

 C     1.2388374801     -0.147736963     3.4422796624
C     2.4180624452     -0.4224103614     2.7540766672
C     2.3892085795     -1.8171568813     2.3123183619
C     0.4044918882     -1.3535364337     3.4243977561
C     1.1083960907     -2.3532749992     2.6997885477
C     -0.8845568995     -0.9567523853     2.9898805945
C     0.4467270301     0.9688688652     3.0559426619
C     -0.9112761913     0.4951981954     2.8679863415
C     0.9937738342     2.0034172179     2.2318000283
C     2.8382639686     0.4276111669     1.6850871497
C     2.2451758445     1.7181685679     1.5124211243
C     2.7617744968     -1.810019452     0.9488972546
C     3.0591861529     -0.4301783123     0.5439912936
C     2.0888146183     -2.6583836709     0.0392006083
C     0.3784688131     -3.1602511613     1.7676372983
C     0.9834987114     -3.4399572198     0.540587129
C     -1.6815442107     -1.7742342277     2.0868887522
C     -1.062262101     -2.926210574     1.5205778811
C     -2.6922698897     -1.0854245345     1.3192333831
C     -1.7962716822     1.1452357548     1.9575020059
C     -2.7436171745     0.360996273     1.2448453628
C     0.0208524501     2.8255469096     1.5788951444
C     -1.3405964027     2.3668886193     1.3789936413
C     0.3759442697     3.6141952728     0.4495396933
C     2.4125914591     2.2834080976     0.2087415347
C     1.5558042564     3.3367603937     -0.236464599
C     2.7884335776     0.0220042182     -0.7763277798
C     2.6333268119     1.426430227     -0.9330011891
C     1.7057485172     -2.1825608109     -1.2556394128
C     2.0772439287     -0.8877967418     -1.7149089893
C     -0.0496757556     -3.4854960885     -0.4850594971
C     -1.3223306397     -3.2526216147     0.120089232
C     0.374632579     -2.7619748594     -1.6000899871
C     -3.1135105826     -1.5961484097     0.0557684718
C     -2.2730378502     -2.5349599965     -0.6189567273
C     -3.1052656727     0.7150981098     -0.1131397745
C     -3.3656407722     -0.496938417     -0.8186880528
C     -1.7371267521     2.7601634161     0.0329530578
C     -0.7306317302     3.5952282491     -0.5125075444
C     -2.5113365285     1.8433796533     -0.7910397109
C     1.2447848434     3.1721578392     -1.6568419404
C     1.8912487511     1.9851869087     -2.0703111437
C     -0.1858829378     3.2893538053     -1.7891045228
C     1.2770924076     -0.3137599317     -2.7423292409
C     1.2263687912     1.1015930043     -2.9519814041
C     -0.5757842432     -2.0231853293     -2.3771696774
C     -1.9328152153     -1.9758376073     -1.9263805427
C     -2.6870691143     -0.729923071     -2.0549221103
C     -0.0540436866     -0.8930939226     -3.0868427474
C     -2.1216377264     1.6923089331     -2.153603474
C     -0.8880464221     2.3613340656     -2.6249621635
C     -0.1312320646     1.4198941764     -3.3255817367
C     -2.1510699885     0.3604007551     -2.7541856478
C     -0.8902203723     0.1789953016     -3.4002810137


