54

 C     1.4630541395     -0.2423874231     4.1846573414
C     0.6873539707     -1.369723933     4.1747439844
C     1.2682981722     -2.4056775397     3.3271995787
C     2.5561338054     -0.4694755919     3.2056723038
C     2.4833049044     -1.8557683336     2.7426839666
C     2.4655234805     0.5473435329     2.2569451425
C     0.6381789378     0.8593080554     3.7184633556
C     1.3060249051     1.4180023738     2.6317396864
C     -0.6688850073     -1.0494238972     3.6929561332
C     -0.7236027571     0.3544859555     3.4330562132
C     0.2320098754     -2.8553446573     2.4760702423
C     -0.9567970275     -1.9377828559     2.6419722838
C     0.5617190833     -3.2768527928     1.1791038805
C     2.730739665     -2.1082656522     1.3872846314
C     1.8773075038     -3.0361667152     0.7078603847
C     2.672418969     0.3164014799     0.8315317505
C     2.9105802097     -1.0106800494     0.4274809036
C     2.1290989569     1.2715715607     -0.1348278938
C     0.5915241599     2.0948552897     1.625000787
C     1.2445966205     2.3397959057     0.3487721153
C     -1.4077967139     0.8230888795     2.2997995094
C     -0.8467504416     1.9921558811     1.6260472038
C     -1.6983394294     -1.5023636446     1.5005040543
C     -2.0810004401     -0.1085345911     1.4015940201
C     -0.3532052981     -3.051268442     0.0657486625
C     -1.5094155361     -2.2499738969     0.2351738502
C     1.7746842942     -2.686893244     -0.6896848649
C     2.3977403342     -1.4385267461     -0.8824016867
C     0.437167865     -2.8416921097     -1.1378905817
C     1.9765961384     0.8957599022     -1.524804121
C     1.8840236971     -0.5278076654     -1.842599202
C     1.3484222716     1.8206652903     -2.4326083943
C     0.5415217961     3.1627627323     -0.5574914536
C     0.726813976     3.0120513437     -1.9505707563
C     -1.5474168139     2.5548782439     0.5456739404
C     -0.8868091049     3.3849681058     -0.3606870819
C     -2.6838598843     0.4164770021     0.153373914
C     -2.57576762     1.7893648046     -0.1753936563
C     -2.0954053588     -1.7398307814     -0.9478240852
C     -2.8774746582     -0.4918659639     -0.9521547979
C     -0.0331126602     -2.0715850533     -2.2188994295
C     0.8089479153     -0.9847449151     -2.7301200368
C     -1.4500269981     -1.8419414672     -2.2134763256
C     0.5668508296     1.328022395     -3.5209452547
C     0.2009735821     -0.0251728613     -3.6074250407
C     -0.5551097864     3.1998103769     -2.6400303083
C     -1.5482357042     3.2862403621     -1.6474025491
C     -2.599726145     2.2904460998     -1.5519087934
C     -0.6537128945     2.1911979067     -3.6334747866
C     -2.9551354402     -0.0115611703     -2.2663974563
C     -2.026664007     -0.8467477234     -3.0611910408
C     -1.2467500392     -0.0342684463     -3.8343099299
C     -2.7453804898     1.3629419553     -2.6130432614
C     -1.7552298127     1.3597327079     -3.6935470605


