54

 C     1.2142186424     -0.067369452     3.4277073174
C     2.3735734717     -0.3761259412     2.7579462883
C     2.3767458825     -1.8140960558     2.4015819124
C     0.3677396655     -1.2680937059     3.4199803683
C     1.0931355552     -2.3367610699     2.7405971117
C     -0.8989636467     -0.8754743225     3.0178127018
C     0.439280611     1.055039672     3.0050859885
C     -0.9191882465     0.6052889057     2.8993967667
C     0.9479779689     1.9728923633     2.0293594343
C     2.8364844204     0.4009601493     1.6413404956
C     2.1557885545     1.5972579013     1.2532211301
C     2.9249634438     -1.9333908153     1.1063020465
C     3.3006883687     -0.5646007063     0.6594777732
C     2.3047894959     -2.8096949281     0.1829927257
C     0.4047929607     -3.0970085604     1.7654503182
C     1.0826443337     -3.4267526468     0.5737320552
C     -1.6417432037     -1.6574055603     2.0318627974
C     -0.992261221     -2.7532053035     1.4044026502
C     -2.6413397762     -0.9820269108     1.2948858928
C     -1.8687776014     1.2859588535     2.1035115659
C     -2.8916295428     0.4743933163     1.4474854063
C     -0.0403128805     2.7879817555     1.4097726255
C     -1.4571916818     2.4940298466     1.4810393462
C     0.2104087053     3.3463680846     0.1231319837
C     2.2412358243     1.9898293698     -0.1628800346
C     1.2392903274     2.8852109315     -0.6985610009
C     3.259866565     -0.2440558839     -0.6784982108
C     2.822733755     1.0751132225     -1.0885801696
C     2.12458297     -2.3808051667     -1.2021853565
C     2.7245590229     -1.2192994665     -1.6516595238
C     0.1392879291     -3.3093664384     -0.5350723762
C     -1.1319256946     -2.912015843     -0.0288819358
C     0.7345368707     -2.6763611721     -1.6265965701
C     -2.9313414064     -1.3187237413     -0.069452067
C     -1.9766682491     -2.0817376772     -0.8175678895
C     -3.5318625959     0.9332991895     0.3073393091
C     -3.5742743937     -0.1823471145     -0.6475741704
C     -2.074407233     2.9203474568     0.2013462763
C     -1.045786984     3.4306527074     -0.6171497033
C     -3.0795107228     2.1265836747     -0.4006582509
C     0.6174107678     2.6709344252     -2.0278684
C     -0.8108069098     2.9677726609     -1.9428958968
C     2.2259802623     0.9188523341     -2.3919950469
C     2.0601773896     -0.4653360067     -2.6570751779
C     1.0615547986     1.6199062972     -2.8083618843
C     -0.0371529471     -1.7566163136     -2.4335174715
C     -1.4483661447     -1.5224058137     -2.0865609778
C     0.6946207849     -0.7029436546     -3.0548443987
C     0.1028131718     0.5998595332     -3.2827199486
C     -3.1364922533     0.2954017877     -1.8592327254
C     -2.9138773066     1.7572625818     -1.7688442936
C     -1.7434269094     2.0584087152     -2.4981457312
C     -2.0482623971     -0.3175587699     -2.5698616291
C     -1.2463125413     0.7819733351     -3.0795214461


