54

 C     1.6134535055     0.0465620635     3.6568830812
C     0.7397128762     -1.1258619052     3.5559496052
C     1.2289908343     -1.9543514682     2.5281987082
C     2.5575730904     -0.0150137441     2.5823148201
C     2.4067754429     -1.2642867015     1.9453629982
C     2.34836235     1.1382846896     1.7249412488
C     0.788312094     1.1451533479     3.4498714105
C     1.2275120201     1.8795602435     2.2666049502
C     -0.6393240287     -0.7231322253     3.5812775513
C     -0.6138140467     0.7487534705     3.5924891951
C     -1.5482086769     -1.3452876609     2.7020490089
C     0.3048598331     -2.5818562023     1.6236769278
C     -1.0850966185     -2.2835123385     1.723339978
C     0.8014633623     -2.9137812993     0.3392387612
C     2.7502076261     -1.4138121366     0.5753971204
C     2.1210997501     -2.5172801233     -0.089237978
C     2.56498367     1.064675803     0.3340210274
C     3.0684659379     -0.2161602214     -0.2098076386
C     1.7775103503     1.9620209609     -0.5192116231
C     0.2787042333     2.497959405     1.4250670372
C     0.5516440961     2.5876104913     -0.0048163195
C     -1.5434560542     1.4597077457     2.8908439924
C     -1.1120500044     2.4818610702     1.896889354
C     -2.6534850037     -0.5843507336     2.1123046123
C     -2.7246957852     0.7968869628     2.3245351813
C     -1.8988064817     -2.102687611     0.5076371359
C     -2.9085901662     -1.1221031209     0.7780915497
C     -0.0598839494     -2.9002304668     -0.8410661032
C     -1.3547100738     -2.2744977471     -0.7923458322
C     2.1381916254     -2.5887003751     -1.5112709899
C     0.7436347619     -2.7681173165     -1.9774922316
C     3.1325989255     -0.3544081341     -1.6267914721
C     2.6934213609     -1.5912140305     -2.2591118543
C     1.9256953076     1.7869108162     -1.9368095333
C     2.6523932573     0.6831623907     -2.4531204456
C     0.7902382919     1.9689693739     -2.8036550836
C     -0.5864361812     2.7643757488     -0.9226722176
C     -0.4671124036     2.2980669315     -2.2703389701
C     -2.1522639295     2.6466343096     1.0013669884
C     -3.1858626429     1.624002959     1.2557068887
C     -1.9273087962     2.7470099083     -0.4139114757
C     -3.3400716693     -0.2926691599     -0.271943962
C     -3.5513113996     1.0997576118     0.0289431124
C     -2.8817278047     1.8724426727     -1.0198444922
C     -1.7201163304     -1.354534441     -1.8880090119
C     -1.3972381717     1.3160632509     -2.8028217812
C     -2.7070613969     -0.383814256     -1.5810108527
C     -2.5142441051     0.9888974023     -2.0562388248
C     0.474252234     -1.8630172768     -3.0377279992
C     1.7521799053     -1.2614858385     -3.3711489857
C     1.8319928034     0.0975491234     -3.5681623699
C     0.6740700755     0.8678784614     -3.7283259966
C     -0.7407287096     -1.0609434501     -2.9807633819
C     -0.6246951717     0.2863528101     -3.4653447686


