54

 C     1.1138562615     0.0062939047     3.7479166039
C     2.2530294761     -0.2763464928     3.0512444051
C     2.1939283151     -1.6669333326     2.5260983105
C     0.2527097426     -1.2059144048     3.6568736604
C     0.8786647541     -2.1551988574     2.745555254
C     -1.0246569331     -0.7725633598     3.4391404232
C     0.3117071033     1.1636757374     3.3802038849
C     -1.034841038     0.7032146153     3.3740527642
C     0.7601114341     2.0533051469     2.3369940924
C     2.777626901     0.5894339331     2.0252312179
C     2.0709050192     1.7955054727     1.6887137634
C     2.7790509385     -1.6470352879     1.2547376422
C     3.2787049486     -0.2863651507     0.9842295422
C     2.1527024566     -2.3538355895     0.2117202408
C     0.1200415237     -2.6950696217     1.6450712257
C     0.8475173899     -2.9133146337     0.4242433075
C     -1.8389990081     -1.2799717392     2.3699152727
C     -1.3140922778     -2.3101538502     1.5189981642
C     -1.9509319785     1.063541093     2.3791075432
C     -2.5335085481     -0.1566631103     1.791870982
C     -0.2723616994     2.6281111879     1.5189507499
C     -1.6174672255     2.1159130818     1.5231819953
C     -0.0281210965     3.0952016745     0.163359018
C     2.2790121772     2.2816228042     0.3484724892
C     1.2247298846     2.9513419103     -0.4084366681
C     3.357152513     0.1567449408     -0.3298632532
C     3.0142004042     1.5048629207     -0.5841887868
C     2.1986438638     -1.8533695636     -1.1570380058
C     2.8096643111     -0.6431236042     -1.4385343881
C     0.1805702523     -2.9380122069     -0.8653615046
C     0.9697120116     -2.2291327834     -1.8382021479
C     -1.9474786015     -2.4070666768     0.2595531526
C     -1.2133253431     -2.8739235591     -0.9304905952
C     -3.0208218536     -0.17000233     0.4655527036
C     -2.9189139394     -1.4421968701     -0.1917128403
C     -2.1664017008     2.1587346171     0.1795502563
C     -1.2299981257     2.8817471146     -0.6341401327
C     -2.9504021844     1.0757209996     -0.349314292
C     -1.1364237418     2.5868398658     -2.0067427606
C     1.3247220009     2.5219194864     -1.8135282968
C     2.3766029972     1.5794046309     -1.8837549701
C     2.1777771222     0.2682624848     -2.3888187006
C     0.1883200691     2.2699715774     -2.5714553779
C     0.3654979444     -1.4093047036     -2.852305189
C     0.9547112728     -0.0644443754     -3.0738598669
C     0.069224986     1.039349677     -3.3285377207
C     -1.7983092301     -2.3241589721     -2.0770186266
C     -2.932761098     -1.4916140905     -1.6274094339
C     -1.053437277     -1.5880454913     -3.0406351508
C     -2.9754910838     0.9555310365     -1.7856149847
C     -2.0849398344     1.7292895245     -2.5759940228
C     -1.3446664067     0.7960528306     -3.4670986792
C     -3.0002425226     -0.3660453016     -2.3990360532
C     -1.8925052973     -0.4517863194     -3.3914462268


