54

 C     1.5324134612     -0.2710138807     4.1804258178
C     0.6774688449     -1.4018346554     4.1995516887
C     1.1382294605     -2.3122382543     3.1574601944
C     2.5054612179     -0.4761181289     3.1723615926
C     2.2982779411     -1.7681477957     2.5180481641
C     2.5762414386     0.6995986392     2.3294149497
C     0.743109256     0.8684876283     3.6943856912
C     1.4152790133     1.5547165507     2.634339767
C     -0.6083450337     -0.98045471     3.7521264314
C     -0.609889419     0.4543243025     3.5078682729
C     0.023524909     -2.7092940956     2.3394333546
C     -1.1143987853     -1.8496436159     2.7091606832
C     0.2339571328     -2.9644641737     0.9969816966
C     2.4584643243     -1.8850381322     1.0870792473
C     1.4907183356     -2.6369635775     0.3600718786
C     2.9219610932     0.5581977939     1.0136209525
C     3.0001309272     -0.7494610105     0.3632611855
C     2.4501516997     1.5098629037     0.0231086184
C     0.6764091703     2.1530374359     1.5866320399
C     1.3169537243     2.307217462     0.2507423511
C     -1.3600395769     0.9769288157     2.4362939906
C     -0.7719675429     2.0424311788     1.6265846174
C     -1.9740439948     -1.3446364257     1.7306072939
C     -2.3319037083     0.0852896655     1.7819852966
C     -0.8184193396     -2.7173511731     0.0346328346
C     -1.9583461105     -1.9808470167     0.3849184194
C     1.203530096     -2.3750490617     -1.0354403029
C     -0.200210373     -2.5133581167     -1.2672958375
C     2.7983311645     -0.5452398587     -1.0202067276
C     2.67297478     0.8967705572     -1.2654255236
C     1.9544422931     -1.4256101175     -1.8123382912
C     2.0586079747     1.3825876715     -2.387300606
C     0.5294610505     2.7267017429     -0.9286531272
C     1.0035640301     2.3877481296     -2.2474286855
C     -1.5101585223     2.4823366434     0.4951741295
C     -0.8721071537     2.8876586456     -0.7720738374
C     -3.0589261576     0.6155352832     0.7197885439
C     -2.7712469725     1.9264468827     0.2225674425
C     -2.6856192172     -1.3610053473     -0.6933607421
C     -3.4138543342     -0.1946010011     -0.4488473978
C     -0.8626005008     -1.8435318603     -2.3478795106
C     -2.1698750076     -1.3241417289     -2.0726885894
C     1.365553824     -0.9266031446     -2.9946994036
C     1.6363956314     0.4450342686     -3.4152625881
C     -0.0380150294     -1.1732135546     -3.3072688574
C     0.0893521877     2.1405079894     -3.3294358893
C     0.529498143     0.9714844208     -4.0766287319
C     -0.5374048077     0.0091192593     -3.9722278462
C     -1.7797522288     2.5396549195     -1.8411974306
C     -2.9098100057     1.8893872978     -1.2303614159
C     -3.3363869934     0.6288176359     -1.6350100958
C     -2.5950969612     -0.0797857022     -2.6609241312
C     -1.2973612189     2.0242186846     -3.0603028527
C     -1.7146841397     0.6455437111     -3.4863687245


