54

 C     1.5391082907     -0.035093798     3.6839027948
C     0.7035927785     -1.2083689232     3.5708825263
C     1.205228169     -2.027770212     2.5433058293
C     2.5270109243     -0.0876344642     2.643191412
C     2.3629605918     -1.290984967     1.9315009439
C     2.4698439366     1.1393185876     1.8739355166
C     0.7088077738     1.0485161553     3.3681246042
C     1.2980948932     1.8524713743     2.320827128
C     -0.6855835291     -0.8101677196     3.5178631566
C     -0.6808977202     0.6402401954     3.2819645929
C     -1.5766437967     -1.6082460724     2.8052160067
C     0.3071988511     -2.7798649044     1.7127692578
C     -1.0988932314     -2.6592227277     1.9218303062
C     0.7638442865     -3.0552977556     0.3700901041
C     2.6040714834     -1.3384441204     0.5185664542
C     1.9137008966     -2.3489947266     -0.2039156165
C     2.8540793555     1.1708913571     0.5129629266
C     3.0197157831     -0.1073247633     -0.1921739834
C     2.3613610855     2.3104317856     -0.2047884742
C     0.4722227115     2.5449642154     1.3991332186
C     1.1223159826     2.9430306767     0.2024784661
C     -1.5316366655     1.2386663953     2.3163792874
C     -0.9932853609     2.2757831966     1.3989332978
C     -2.6600262304     -0.9535912408     2.1392217668
C     -2.6347800886     0.4167167024     1.8533380391
C     -2.0235762507     -2.7010499997     0.7618541724
C     -2.9797472681     -1.6723324361     0.9145631368
C     -0.1563408777     -3.3093475849     -0.6691168096
C     -1.544126823     -2.9629720914     -0.5302895717
C     1.6446677356     -2.2079316278     -1.6197166515
C     0.3375087088     -2.7615720103     -1.893009796
C     2.8558716892     -0.0810991146     -1.6092130909
C     2.0508254083     -1.0813468662     -2.286868437
C     2.3787667938     2.319824485     -1.6303276355
C     2.6173927404     1.138811957     -2.3029554304
C     0.3703154487     3.2590595355     -1.0063693191
C     1.1279218498     2.8993023961     -2.1388047988
C     -1.6933822641     2.5321256496     0.200739018
C     -1.0266154545     3.0180762191     -1.0022754743
C     -3.165009832     0.5641667693     0.4978949652
C     -3.2690261531     -0.7532533371     -0.1238519695
C     -2.7778446573     1.6422649178     -0.2539934752
C     -1.8786592003     -2.0956663358     -1.6369081717
C     -0.6699209717     -1.9714960269     -2.4732625189
C     -2.7204996707     -0.9627398233     -1.4474897117
C     1.1040872606     -0.3920217569     -3.2002646589
C     1.5112548958     0.9374321831     -3.2846102636
C     0.5851736315     2.0150522094     -3.1402333089
C     -0.3194790733     -0.7403908659     -3.1509653953
C     -1.5989127766     2.3732734761     -2.1319252512
C     -2.6382762238     1.4800237866     -1.6710112991
C     -2.4428794243     0.2132323824     -2.2377638519
C     -0.8002484585     1.708476413     -3.1027813752
C     -1.2506519538     0.3220732504     -3.1165825987


