54

 C     1.5276999986     -0.0723601239     3.9649554797
C     0.7768753055     -1.2953111599     3.9508819562
C     1.6097017068     -2.2930793408     3.3944078775
C     2.6709153644     -0.2489026169     3.0712133091
C     2.7909865484     -1.5991455382     2.7651534196
C     2.5388449845     0.7042476547     1.984808088
C     0.7321619194     0.9294716698     3.3903096301
C     1.4119760581     1.5710288201     2.2828879818
C     -0.5226366125     -1.0263026803     3.3144579941
C     -0.5937168358     0.4200422921     3.1334058361
C     -1.0308914385     -1.8539010632     2.2650480589
C     1.1107277134     -3.1902876368     2.4696487619
C     -0.2471448022     -3.0409962675     1.9208934988
C     2.8968577457     -2.0526729911     1.4123794811
C     2.0060379145     -3.1957611745     1.3217749013
C     2.7179045797     0.3221833308     0.6266979171
C     2.8866637051     -1.1107295973     0.3213079648
C     2.1729483681     1.2452214978     -0.3785108167
C     0.653906162     2.1955426841     1.2944949614
C     1.1667097781     2.2471313971     -0.0620367726
C     -1.3614500096     1.0159820997     2.1520891128
C     -0.7997635016     2.18328502     1.4528939423
C     -1.8551515509     -1.2280232063     1.2103836304
C     -2.2460413982     0.1613126241     1.3612450805
C     -1.8512003923     -1.7215072466     -0.1581752672
C     -0.19694752     -3.4220250282     0.5696207965
C     1.2386825818     -3.4500811384     0.184511994
C     -0.8912925492     -2.7456196678     -0.4459482279
C     2.294376562     -1.5562373649     -0.9441821331
C     1.3850054806     -2.6799327354     -0.9598143428
C     0.0335067217     -2.4491265942     -1.5136478828
C     2.2026933401     0.8043397068     -1.7415153087
C     2.0368466352     -0.6156357765     -1.9397744165
C     1.5088935172     1.4799380088     -2.7579946289
C     0.3396148865     2.8772038014     -1.111974267
C     0.5988056659     2.5204279054     -2.507477149
C     -1.5631321052     2.7727631776     0.4642964509
C     -0.9946991818     3.2724292304     -0.783486979
C     -2.992772259     0.7690405338     0.3539379053
C     -2.841052543     2.1923405588     0.1273972541
C     -2.3176071258     -0.9147467525     -1.2944080926
C     -3.1463084997     0.1949860865     -0.9715380809
C     -0.2276296888     -1.5031867397     -2.5032243958
C     0.9429283058     -0.7661287558     -2.9232616028
C     0.7828915386     0.4575252516     -3.5565707959
C     -1.5491468687     -0.869209122     -2.5523338572
C     -0.5369162439     2.3408667786     -3.4267886456
C     -0.4887145703     0.9496521282     -3.8527260248
C     -1.698413354     0.2786026715     -3.4114292241
C     -2.0812267862     3.2261533771     -1.7751785794
C     -3.1946404589     2.5399489054     -1.1844379124
C     -3.368485849     1.2815217117     -1.9076414367
C     -1.8299437665     2.6191036458     -3.0270382338
C     -2.608237176     1.3286177391     -3.0699882201


