54

 C     1.192257574     0.0747176761     3.46223481
C     2.3677457363     -0.1701891671     2.7380346066
C     2.3474844822     -1.5544350662     2.2601334263
C     0.363315798     -1.0846016114     3.323008913
C     1.0367463367     -2.0443240204     2.4614622012
C     -0.9599498502     -0.6644021068     3.0816315312
C     0.3888168895     1.2372968922     3.2115890373
C     -0.9973122821     0.79463296     3.2735287624
C     0.7986586034     2.1768380429     2.2143941532
C     2.7574180254     0.6541179108     1.66598194
C     1.9945836802     1.8538854825     1.3840357162
C     2.951383356     -1.5965601281     0.9814720579
C     3.2298004272     -0.2279035687     0.5752765566
C     2.4398516538     -2.5054694346     0.0517577492
C     0.3173867175     -2.672417022     1.382381505
C     1.1018127284     -3.0508061517     0.2532766651
C     -1.7446434954     -1.2888832855     2.0487349291
C     -1.118484643     -2.319819955     1.1888220847
C     -2.8315911449     -0.4901769827     1.5235636797
C     -1.9908983776     1.5417806045     2.6627193381
C     -3.0001546688     0.857689454     1.8907841676
C     -0.2756224963     2.934206187     1.5981057009
C     -1.6149791439     2.704361674     1.9261938245
C     -0.2425016486     3.2533003809     0.1644366213
C     2.0260720439     2.2900411414     0.0370252425
C     0.9051003771     3.0289718322     -0.5529514995
C     3.1040942524     0.1504407831     -0.7792349425
C     2.5942984948     1.472984946     -1.0251708034
C     2.5473372458     -2.1788993701     -1.3364274978
C     2.8098007326     -0.8793077147     -1.7702494704
C     0.4938527775     -3.20413428     -1.0704656071
C     1.3794448852     -2.6988747611     -2.0484004006
C     -1.6868233808     -2.5407103857     -0.0935090095
C     -0.8860763936     -2.9745944482     -1.2292697911
C     -3.2076848682     -0.5993902795     0.1138623856
C     -2.7159320932     -1.6482390717     -0.6288978001
C     -3.2476890946     1.6131253421     0.6621830757
C     -2.4036796093     2.7128142136     0.6600606785
C     -1.5507290936     2.9733845846     -0.4341634531
C     -3.296557277     0.7256585818     -0.4585653467
C     -1.6524698063     2.1836016077     -1.6454635824
C     -2.565448563     1.0319204817     -1.662466007
C     0.7633507859     2.6109382651     -1.9090058097
C     1.83134239     1.7054602472     -2.1975418073
C     -0.4513640821     2.0944448089     -2.4254823469
C     1.852243067     -0.6164354648     -2.8919442572
C     0.9640524009     -1.7529910206     -3.0267612541
C     1.3471098497     0.6607271185     -3.0501230578
C     -0.1019478255     0.9018575443     -3.2133453456
C     -1.3213734081     -2.2688771114     -2.3919329231
C     -2.4240550615     -1.4046908425     -1.9991168121
C     -2.2205489842     -0.1009029645     -2.4875002643
C     -0.4287389778     -1.5360825301     -3.2025899665
C     -0.9681050412     -0.1650800081     -3.2661123037


