54

 C     1.5848457925     0.1113330056     3.8233890008
C     0.7736348641     -1.06330547     3.6524038699
C     1.3332952545     -1.8443009782     2.6267913708
C     2.6309235211     0.0964392407     2.8258730676
C     2.4931079828     -1.0929657871     2.0748535199
C     2.6291176641     1.3596275478     2.1119292737
C     0.7732357802     1.210250382     3.5039138605
C     1.4423527552     2.0825658927     2.5614599949
C     -0.61969439     -0.6475716547     3.4782989321
C     -0.6093299549     0.7898150893     3.2770897499
C     -1.4700893661     -1.4329844272     2.7311619077
C     0.4816185674     -2.635038872     1.7713047669
C     -0.9432508466     -2.5975564304     2.0136517243
C     0.9181857756     -2.8432255937     0.4340309636
C     2.7375265031     -1.0923484859     0.6557685276
C     2.0178831609     -2.0427414014     -0.1324770083
C     2.9534554762     1.381388403     0.7582936177
C     3.0984829136     0.1440556334     0.0201829783
C     2.3045075246     2.3297523104     -0.1328430394
C     0.6545799681     2.7499116417     1.635914709
C     1.1568180531     3.0075545308     0.3039317586
C     -1.3968185523     1.3976703514     2.2592391934
C     -0.7826087063     2.4802646938     1.5244849034
C     -2.495784232     -0.8147974032     1.9034425625
C     -2.4218666177     0.5839600486     1.5745722159
C     -1.8272141513     -2.8233058196     0.9365787964
C     -2.8201354163     -1.7566124158     0.895521144
C     -0.0053883569     -3.1063841743     -0.6293169108
C     -1.3961122011     -3.0585523069     -0.3880006017
C     1.776072853     -1.8426265168     -1.5274159982
C     0.525115795     -2.514127393     -1.8400925044
C     2.7415436504     0.3973236044     -1.3578505348
C     2.319099692     1.7782137736     -1.4661815971
C     2.1254766811     -0.6064876228     -2.1735213878
C     1.3297694031     2.1499056968     -2.3973489316
C     0.0141488318     3.1454580792     -0.5845067802
C     -1.1783590663     2.7758443952     0.1889834279
C     0.1085631655     2.8160151719     -1.9181954602
C     -2.8342038548     0.9533992783     0.2568624776
C     -2.2140643628     2.0619143807     -0.4346045985
C     -3.082266458     -1.3983110962     -0.4443757064
C     -2.2612915351     -2.2736444775     -1.2943886521
C     -3.1718290363     -0.0324611825     -0.7548791378
C     -0.3438304696     -2.0010622576     -2.8110349562
C     -1.768317581     -1.7948889552     -2.4838620205
C     1.2920727852     -0.1603683778     -3.2680920591
C     0.9380897484     1.216874575     -3.373308013
C     0.0827667612     -0.882523988     -3.5636355067
C     -1.0388319197     2.1958508013     -2.6104507425
C     -2.1578790284     1.7789149464     -1.8515536728
C     -2.723356789     0.4513341277     -2.0467427377
C     -2.118740045     -0.441801626     -2.9574776519
C     -0.5203291067     1.3228889035     -3.5978227769
C     -1.0346988697     0.0314681587     -3.7599493479


