54

 C     1.5463038448     -0.2140291153     4.0738990663
C     0.7173671897     -1.3960856782     4.0815687588
C     1.1074307546     -2.1967127481     2.972094772
C     2.4182321567     -0.3230741417     2.9612421949
C     2.1654930306     -1.5499511326     2.2338943135
C     2.4441133948     0.8936736483     2.1763567483
C     0.7125538685     0.8935135489     3.6604706637
C     1.3369512511     1.7018889014     2.6529209091
C     -0.5881116184     -0.9838415915     3.6382077716
C     -0.6285640007     0.4375451249     3.3907318108
C     -0.0427399724     -2.6659741433     2.2044509772
C     -1.1551787321     -1.8628143124     2.641062246
C     0.1022389656     -3.0035297246     0.8616906585
C     2.2052468658     -1.6022663481     0.8053265926
C     1.3186922399     -2.56910451     0.1315044804
C     2.724305285     0.8447456286     0.8095010831
C     2.6733311596     -0.4267976475     0.0662710789
C     2.3618869878     2.0560366389     0.1147932451
C     0.5436147575     2.4349021073     1.742475476
C     1.2254051779     2.8478272083     0.5664740284
C     -1.4215695597     0.9859963612     2.3321127335
C     -0.9045388055     2.1812991479     1.6493479404
C     -2.0907349855     -1.3652073285     1.7080660764
C     -2.3341671451     0.0861294213     1.620171762
C     -1.1504533467     -3.0361326478     0.1404165795
C     -2.2229361016     -2.1499566141     0.5261281425
C     -1.1492837735     -3.1328498464     -1.2662846794
C     1.2365679859     -2.5260859174     -1.2723901928
C     0.0371359266     -2.9673131895     -1.9749311552
C     2.4870532125     -0.3636132294     -1.3751619169
C     1.7908588531     -1.4207681179     -2.017382326
C     2.4253432799     2.1192729492     -1.2750075522
C     2.4489865824     0.9330532499     -2.0485175275
C     0.5347998579     3.3415079748     -0.6057329214
C     1.3372470189     2.9990544828     -1.7530253633
C     -1.5604728875     2.6202406426     0.4713719922
C     -0.8499614391     3.1992587544     -0.6809833047
C     -2.9314119269     0.5595676576     0.4268694892
C     -2.6345221899     1.8572664967     -0.0428839269
C     -2.8170151588     -1.6277849905     -0.7016379308
C     -2.1856736692     -2.258063678     -1.8248940841
C     -3.1327752554     -0.2831953271     -0.7594873203
C     -0.2371138956     -2.0253625383     -3.0241474348
C     0.8353550096     -1.1348110053     -3.0973640346
C     -1.6005010258     -1.49834342     -2.8531623768
C     1.5221029886     1.1673402692     -3.1337784135
C     0.7871505369     2.4157662402     -2.8687444477
C     0.5853815027     0.2067991317     -3.4882989215
C     -1.4499458054     2.6346737799     -1.8985874822
C     -2.5406487626     1.8261044706     -1.4879436392
C     -2.7409444377     0.4980654594     -1.9350365556
C     -1.8472190258     -0.0654472064     -2.9321140785
C     -0.6262174185     2.1360706144     -2.9435730405
C     -0.7884487657     0.7715162193     -3.3983509445


