54

 C     1.63496746     -0.1301169876     3.6837785648
C     0.7878166941     -1.2691471674     3.5847757178
C     1.3200321543     -2.1891838968     2.6056092964
C     2.5338330848     -0.2051406779     2.5777118394
C     2.3528771062     -1.4515563589     1.8771326013
C     2.4718330791     1.012504137     1.8299453624
C     0.8111747754     1.0163068051     3.4277248249
C     1.4020105591     1.816004461     2.4026372202
C     -0.5870855568     -0.8371905645     3.4664560568
C     -0.561226837     0.6227169747     3.2740186738
C     -1.4510962455     -1.6271589208     2.7104758249
C     0.4182468026     -2.9875824781     1.8984043647
C     -0.9758962052     -2.8309848681     2.1212887476
C     0.6332973409     -3.2387773274     0.4664400855
C     2.4504981598     -1.5170760946     0.4528770372
C     1.6777240904     -2.5802789005     -0.2415584629
C     2.6877388666     1.0031361925     0.4291085865
C     2.7769549407     -0.2829725484     -0.2743821023
C     2.2081287977     2.1627886969     -0.2488175829
C     0.6010528932     2.6394877695     1.5874122185
C     1.2373302531     3.0352852171     0.3564434661
C     -1.3761961263     1.2608093579     2.298701804
C     -0.8541075427     2.4625851323     1.6161728231
C     -2.3427251708     -0.9857324742     1.7362667984
C     -2.3574348158     0.4169354658     1.5762479395
C     -1.6148322154     -2.9561717756     0.8221714593
C     -0.6758808935     -3.3677906125     -0.1560877334
C     -2.484263451     -1.8698485268     0.5835768472
C     -0.8773014739     -2.971194485     -1.4946222998
C     1.5104175289     -2.4904700591     -1.6767706294
C     0.2427805975     -2.7893182964     -2.3059413731
C     2.5549767153     -0.2645504651     -1.6881680503
C     2.0552739277     -1.3847820415     -2.3687974318
C     1.9369690511     2.1364887093     -1.6882808952
C     2.0234022167     0.9308569388     -2.3604216229
C     0.4437563916     3.5868000205     -0.692139898
C     0.8405485364     2.9813044005     -1.972598256
C     -1.5909950533     2.9685453272     0.4968066678
C     -0.9302602268     3.6178444665     -0.6054803729
C     -2.8839980996     0.8924689132     0.3225717144
C     -2.654631967     2.1961836212     -0.0825482577
C     -2.6206353381     -1.3499851547     -0.7588967871
C     -1.8829642728     -1.9441932293     -1.8214329296
C     -2.9268207876     0.0216487591     -0.8756081966
C     -0.0660313551     -1.7116288246     -3.2401724211
C     1.0415652538     -0.8947769243     -3.3284996975
C     0.9465263456     0.5208388568     -3.2535708257
C     -1.3362048671     -1.126994313     -2.8850655132
C     -0.3165279716     2.5109539121     -2.6511833588
C     -1.4338504379     3.009650982     -1.8803162172
C     -2.4544823634     2.1668939915     -1.5438460929
C     -2.4979353345     0.80002184     -1.9956590551
C     -0.3358524756     1.1681008173     -3.1964876806
C     -1.5124965484     0.2974422474     -2.9174028087


