54

 C     1.553088874     -0.0836898943     4.0932841503
C     0.7405935539     -1.2874640408     4.0228128713
C     1.459801285     -2.2891892744     3.381057368
C     2.7205852057     -0.2862527811     3.2437533634
C     2.7356499548     -1.6588106152     2.8903333584
C     2.6680624399     0.6757639918     2.174118106
C     0.7883014846     0.9392688919     3.5249632045
C     1.5206317891     1.5393586941     2.4421649481
C     -0.5891849486     -0.9229693764     3.5044950164
C     -0.5695168525     0.4883929595     3.2201512114
C     -1.229461889     -1.7490813549     2.5743682
C     0.8781269096     -3.0302045727     2.2840284099
C     -0.4804697557     -2.8356041581     1.933635127
C     2.9054782008     -2.0523475657     1.5655585961
C     1.808359403     -2.9595432207     1.2034940445
C     2.8514963693     0.2907541961     0.7925909138
C     2.9916045387     -1.103041205     0.5018312809
C     2.2946056516     1.1439526719     -0.2532633851
C     0.8339489321     2.1890582018     1.4247342487
C     1.4786088887     2.2819842572     0.1225697774
C     -1.278665127     1.0568110696     2.1345471972
C     -0.6346224319     2.1218166221     1.4002456277
C     -2.1170787989     -1.1726425472     1.5986724628
C     -2.2199687096     0.2193637116     1.3683541801
C     -0.8884691418     -2.8685343896     0.5515172719
C     -2.0578405574     -2.0355703994     0.4245374204
C     1.4234969346     -2.7434484425     -0.1395653833
C     2.2096009351     -1.6312671856     -0.6181048062
C     0.0505515529     -2.8118540604     -0.5310132511
C     2.055898936     0.6017164509     -1.580443698
C     1.7678610544     -0.825170562     -1.6735233813
C     1.4874170598     1.4543495055     -2.5742812058
C     0.810903674     3.0434069083     -0.866902535
C     0.9703846896     2.7338018238     -2.220589442
C     -1.3094348735     2.6729328068     0.274775272
C     -0.6037414725     3.3745370345     -0.6930096197
C     -2.7775153232     0.6915139997     0.0803118203
C     -2.4458438519     1.9815262858     -0.3839674113
C     -2.51028221     -1.6238985029     -0.795085189
C     -3.1019934319     -0.2849098578     -0.945202219
C     -0.3316758469     -2.1842747354     -1.7882567706
C     0.6025943132     -1.2817456785     -2.4542714844
C     -1.7267915421     -1.8870703548     -1.976110651
C     0.6161489853     0.9050199124     -3.5647259345
C     0.1197615513     -0.4136371502     -3.4973309233
C     -0.3242503677     2.9381297989     -2.9400584716
C     -1.2898961498     3.2213322595     -1.9726154496
C     -2.4350642727     2.3480703229     -1.794716828
C     -0.5060044342     1.8552479716     -3.8267637539
C     -3.0588830393     0.0508580048     -2.3010388056
C     -2.1795203117     -0.9611469407     -2.9542152423
C     -1.3072847699     -0.3052385316     -3.7840586858
C     -2.6825221317     1.3457551178     -2.7772021074
C     -1.6875809456     1.1238839372     -3.8265888236


