54

 C     1.4719878767     0.0123957733     3.9723576536
C     0.6118621281     -1.1566783728     3.741818058
C     1.2536316502     -2.0557211889     2.9078197179
C     2.5638105423     -0.1039292808     3.0407352575
C     2.5283944449     -1.3937251417     2.4684933644
C     2.563613992     1.029330912     2.1298079356
C     0.7004034608     1.0855934311     3.4990966571
C     1.3721561144     1.7915432407     2.4339429176
C     -0.7190240448     -0.7395766264     3.3656656697
C     -0.6682012282     0.6970195332     3.2377787851
C     -1.4741395234     -1.4765688594     2.4029824893
C     0.6134093775     -2.5675229226     1.7362461677
C     -0.7825330231     -2.3921527584     1.4870483395
C     2.6556222187     -1.5856378946     1.0913551781
C     1.5507130491     -2.4336625265     0.6458676536
C     2.9604417714     0.8718537948     0.7676325943
C     3.0864677836     -0.5035273921     0.2269238018
C     2.5238126933     1.8849012107     -0.1221481222
C     0.6291007771     2.4531252308     1.4120676883
C     1.3679696446     2.7068406437     0.224053487
C     -1.46108598     1.388421802     2.2716478656
C     -0.8302968116     2.3031239852     1.3205327392
C     -2.61075819     -0.7753159889     1.9305494006
C     -2.6271882973     0.678613078     1.8832463094
C     -3.2697038848     -1.2094772204     0.7488541031
C     -1.2505568482     -2.5001825183     0.0974372236
C     -2.5507554743     -1.9993838186     -0.2113187204
C     1.1574929963     -2.4847973295     -0.70312773
C     -0.2727950138     -2.6025288744     -1.005831177
C     2.8903880807     -0.7180535384     -1.1382724043
C     2.0567725347     -1.8289951071     -1.6220239179
C     2.4990409533     1.6833658495     -1.5587796149
C     2.7455786795     0.387346977     -2.0877129009
C     0.7068087611     3.0395773103     -0.9850254793
C     1.4190565516     2.4343681501     -2.0939333681
C     -1.473942027     2.4720665281     0.0147750239
C     -0.6588206398     2.7776201969     -1.1321573402
C     -3.391064879     1.0650503518     0.7264142195
C     -3.9396494532     -0.1078136227     0.1178273952
C     -2.7119895891     1.8121712263     -0.2701709545
C     -2.8365810061     -1.3680288595     -1.5078981658
C     -3.5508500822     -0.1153770515     -1.2423723142
C     -2.8921263154     1.1008843769     -1.5629968557
C     -0.679823879     -2.1778136406     -2.309021245
C     -1.8954055208     -1.3977148505     -2.4901205362
C     1.5991940265     -1.4693363911     -2.8999762892
C     1.9729249015     -0.0630303984     -3.180357324
C     0.2616265673     -1.6415052676     -3.2277590554
C     0.476190639     1.870628903     -2.9961329645
C     -0.8412184703     2.0826102145     -2.4335275756
C     -1.871750435     1.1216523176     -2.5621334759
C     -1.5229928908     -0.1529183969     -3.2059033315
C     0.7993610674     0.6241997663     -3.6158955079
C     -0.254579776     -0.3533289355     -3.7383813253


