54

 C     1.4542340686     0.076495334     3.945302368
C     0.68044119     -1.1419207212     3.680326383
C     1.4725066539     -2.0024643431     2.9463861245
C     2.6082914218     0.0450008773     3.0498973228
C     2.717757366     -1.2627615622     2.5385085679
C     2.5718326964     1.1759858164     2.1655312508
C     0.6749476528     1.1608361365     3.5939288033
C     1.447821412     1.9806331526     2.6560926577
C     -0.6020265268     -0.7551426387     3.130897519
C     -0.6314238676     0.6956277906     3.1307982266
C     -1.1741286186     -1.4507636019     2.0367400318
C     0.965099506     -2.674016052     1.8090361877
C     -0.4033500665     -2.5384069218     1.4039835227
C     2.88332645     -1.4693534437     1.1748473644
C     1.9956503355     -2.6031006338     0.7924108975
C     2.7235893161     1.0150056764     0.7445300082
C     2.9921159092     -0.3443876612     0.2462669654
C     2.0800817463     2.0013389513     -0.1575217512
C     0.7689856864     2.7749075795     1.8046407297
C     1.2484999509     2.9946820837     0.4565796631
C     -1.3464584148     1.4308946662     2.1496790823
C     -0.7207940073     2.6895263303     1.7264313971
C     -2.1681337783     -0.7314956648     1.2291076258
C     -2.2296184126     0.7446466825     1.2387922871
C     -2.6854377421     -1.4332298072     0.121687545
C     -0.7199961126     -2.9437085828     0.0402670743
C     -1.9836327438     -2.5406086516     -0.484106795
C     1.701818729     -2.835530466     -0.5193921006
C     0.3399291763     -3.143048834     -0.9061391325
C     2.6917545215     -0.6503929802     -1.1034600559
C     2.2982915462     -1.9731105772     -1.5188357398
C     1.7435668637     1.635963894     -1.5470759954
C     2.0530404839     0.3207431332     -1.9922527539
C     0.6267683174     2.251250667     -2.2239262083
C     0.1522319876     3.574510708     -0.2376182016
C     -1.0886426981     3.290546645     0.5528384763
C     -0.1332623621     3.2520256977     -1.5352612691
C     -2.6893432683     1.4622305021     0.024191981
C     -2.0721981471     2.7229783094     -0.3204979615
C     -1.5542472858     2.8858619677     -1.6420608472
C     -3.3425060896     -0.7214097025     -0.9611025803
C     -3.1668072027     0.7110807429     -1.0811661901
C     -2.2057042242     -2.4275227293     -1.9153523266
C     -3.1559344882     -1.3843606391     -2.17776593
C     0.1811299052     -2.6108698391     -2.2515053113
C     1.3387617748     -1.8198153683     -2.5280727007
C     1.1876709173     -0.4030539649     -2.8664138289
C     -1.0661801815     -2.1919520631     -2.7185051066
C     -0.3205200948     1.4667523791     -2.9988727186
C     -1.6802240328     1.8954795593     -2.6258865794
C     -2.6687011185     0.9246621974     -2.4258309032
C     -2.5016692056     -0.3917134509     -3.0200031789
C     -0.0769565381     0.0965489019     -3.2879856143
C     -1.2122483469     -0.8320755014     -3.3430883122


