54

 C     1.5228449654     0.092187381     3.7815220135
C     0.7354755586     -1.0891861943     3.6799069092
C     1.2981873842     -1.8647182809     2.6407255048
C     2.6064389634     0.0679277823     2.8195693072
C     2.4745069927     -1.1272973191     2.0802610405
C     2.6484736847     1.3348821728     2.1348743025
C     0.7273641924     1.2105834578     3.4821892598
C     1.4394271378     2.0643757343     2.5551802454
C     -0.6473353856     -0.6521602538     3.4859784098
C     -0.6348826251     0.787062493     3.2293262261
C     -1.4990871883     -1.4353259473     2.7636758432
C     0.4533892101     -2.6625717318     1.7942340083
C     -0.98032098     -2.6374123755     2.0705690801
C     0.8458098017     -2.8457657221     0.4445558837
C     2.6967177916     -1.1248367441     0.6636852571
C     1.942865988     -2.0469629805     -0.1354850486
C     2.9924673746     1.3518340815     0.7882602212
C     3.0878782008     0.109067006     0.039226735
C     2.4042690802     2.3314941018     -0.107671106
C     0.6872557446     2.7145965887     1.6007445802
C     1.2516534863     3.009434636     0.3030677718
C     -1.3760844427     1.329517557     2.1337218683
C     -0.7382823117     2.3918777902     1.3952592334
C     -2.5227052674     -0.8473924691     1.9150248326
C     -2.3748176184     0.5012481647     1.4371365647
C     -1.8910779588     -2.956911347     1.0711163059
C     -2.9246407319     -1.8896694237     1.038320514
C     -0.1109838387     -3.1111715966     -0.5957181586
C     -1.4963719669     -3.2059537551     -0.2839503099
C     1.6217940855     -1.7779809057     -1.4804422315
C     0.3167380587     -2.4025290532     -1.771704607
C     2.7594677082     0.3841970713     -1.3364716138
C     2.4561403937     1.8011487887     -1.458392106
C     2.0297598586     -0.566084236     -2.1301751708
C     1.5603201038     2.2464968437     -2.4233582601
C     0.1554400338     3.1601319909     -0.6270105337
C     -1.0606407831     2.6619377191     0.0449123667
C     0.3574601522     2.9708074947     -1.977136668
C     -2.7099335706     0.7819958079     0.0333488801
C     -2.0460509567     1.8907905165     -0.6727412987
C     -3.237166139     -1.6278473153     -0.2708359915
C     -2.4181613393     -2.5153405699     -1.1368150876
C     -3.1678397444     -0.3069229068     -0.7874175077
C     -0.6063897692     -1.7747283447     -2.6451382838
C     -2.0092176     -1.7754410829     -2.2394381163
C     -2.6711134241     -0.453446048     -2.1458954586
C     1.21388076     -0.0711915927     -3.2004523752
C     1.1143698267     1.3179278286     -3.4306495158
C     -0.148340002     -0.6528714556     -3.4187205302
C     -0.7584023417     2.4553034098     -2.74162806
C     -1.9059217053     1.851891729     -2.0950061699
C     -2.1540597083     0.6101172885     -2.8256301232
C     -0.2732013613     1.5968482377     -3.7420451345
C     -1.0373677779     0.396035948     -3.7464637182


