54

 C     1.4763022047     0.0157650988     4.030005754
C     0.6030669082     -1.147978949     3.7239043751
C     1.301370901     -2.0126858764     2.8892301962
C     2.5784766678     -0.0432534193     3.1051908158
C     2.5513931208     -1.2994507376     2.4913832249
C     2.5115703488     1.1284246415     2.2185064609
C     0.726323581     1.1335208448     3.6910494046
C     1.3854823474     1.9175966943     2.6503127552
C     -0.7021386523     -0.7138443779     3.3323478643
C     -0.6725668772     0.7550764987     3.4653532827
C     -1.3656359267     -1.2885363204     2.2029738141
C     0.7157293584     -2.5269613096     1.712952566
C     -0.6491155715     -2.2746514684     1.3777958677
C     2.7296604609     -1.4714628304     1.1075720229
C     1.7002507796     -2.3854464781     0.6451010513
C     2.8080740938     1.014171998     0.8266868841
C     3.0463898783     -0.3411002174     0.2693707174
C     2.1799327401     1.9675026275     -0.0441817522
C     0.5944809051     2.6693951321     1.7347053446
C     1.0735391916     2.7792319347     0.3949267852
C     -1.4473143785     1.5547661687     2.6811608216
C     -0.8469415796     2.6613841336     1.9145256445
C     -2.4105856308     -0.4670448494     1.5619193333
C     -2.4819498656     0.947624103     1.8490389356
C     -2.897759845     -0.8772841096     0.3061526665
C     -1.0533954209     -2.5293555444     -0.007930685
C     -2.3176785287     -2.0076885011     -0.4062175789
C     1.3616021483     -2.5062247151     -0.7084995408
C     -0.0432379897     -2.7909123097     -1.0600655083
C     2.8624678069     -0.5613068014     -1.1009987235
C     2.2030770525     -1.7555005458     -1.6010132247
C     2.010191562     1.7166303928     -1.4555732484
C     2.4869437237     0.5278494177     -2.0103048498
C     0.1756717076     2.9308151805     -0.7418305339
C     0.7272719657     2.2367663701     -1.8826578281
C     -1.6782774616     2.8466790248     0.8084488286
C     -2.7637439626     1.8728526202     0.819564393
C     -1.2018596895     2.9334738733     -0.5414623384
C     -3.3321784388     0.1062218558     -0.7003612546
C     -3.0247284702     1.4640350312     -0.4997589089
C     -2.0605667391     2.1114857934     -1.3960925179
C     -2.6041871999     -1.8166045558     -1.79283273
C     -3.0795809019     -0.4240050624     -1.9670170499
C     -0.4038432422     -2.6127888588     -2.437172482
C     -1.7026853115     -2.1136827525     -2.7758273296
C     1.7283396242     -1.4716196336     -2.911298611
C     1.8138437188     -0.0071883136     -3.1241833245
C     0.5059419649     -1.9201137238     -3.3282198611
C     -0.0961049374     1.5435920233     -2.8281058338
C     -1.5567317956     1.440124334     -2.5431984301
C     -2.2621255816     0.2191312102     -2.9282813529
C     -1.5336780436     -0.8529859399     -3.5813391819
C     0.5485773869     0.460932518     -3.5464151234
C     -0.2173600871     -0.7353712897     -3.8893400064


