54

 C     1.4351576696     -0.0732536242     3.8104228422
C     0.6211087474     -1.2326290386     3.5474813922
C     1.1697512452     -1.9127014514     2.4391051337
C     2.5150166078     -0.0431337373     2.8570275
C     2.3754320876     -1.1554567639     1.9995552009
C     2.557036327     1.266930011     2.2491235234
C     0.6304512623     1.0346114951     3.5117216634
C     1.2940050958     1.9134547975     2.5636209125
C     -0.7595034866     -0.8160692324     3.4582201882
C     -0.7502488756     0.6295324155     3.3088858601
C     -1.6129344268     -1.5696191493     2.6624304697
C     0.3255859698     -2.5615534575     1.4692863645
C     -1.0813672563     -2.5447221715     1.7207057061
C     0.8161727962     -2.7050425854     0.0864417302
C     2.7073035951     -1.0656824162     0.6009936953
C     2.0133670137     -1.9531281017     -0.350014282
C     3.0609571017     1.3658837654     0.9584898389
C     3.248848232     0.1749300962     0.142057494
C     2.536728358     2.3971745566     0.128095694
C     0.5382052584     2.5930291765     1.5636048303
C     1.260806909     2.9680725849     0.3778908024
C     -1.5526489496     1.2798388146     2.3258586653
C     -0.926549902     2.3196676018     1.4547438716
C     -2.6952732949     -0.8888574016     2.035504302
C     -2.6507209963     0.511382446     1.8038999673
C     -2.0238870801     -2.5775340655     0.6065864998
C     -3.0068532531     -1.5412410224     0.7945644111
C     -0.1577564406     -3.0571216252     -0.9040390309
C     -1.5748604143     -2.8131530796     -0.6659413238
C     0.0475479054     -2.742865379     -2.2707775377
C     2.1314593237     -1.6193476159     -1.7386088061
C     1.1570337574     -2.0460372546     -2.6752581368
C     3.0356305677     0.6001666609     -1.2379404442
C     2.5772752991     1.9659491053     -1.2412177244
C     2.4829854677     -0.2645663646     -2.1452931754
C     0.6037220471     3.0716151233     -0.9167096779
C     1.4143807029     2.384432506     -1.9284656103
C     -1.542408519     2.583889868     0.2206454166
C     -0.7682812083     2.9672028664     -0.9721996519
C     -3.1505599885     0.7136853644     0.4519731563
C     -3.3192505013     -0.5885910475     -0.2027454974
C     -2.6666298328     1.77491825     -0.2801266191
C     -2.1256763226     -2.0334944854     -1.8050844513
C     -1.1560732005     -2.0538899924     -2.8007646784
C     -2.8777965432     -0.8080816472     -1.5548988949
C     0.7098558653     -0.881967159     -3.4810186564
C     1.4684289808     0.2238336907     -3.1153724567
C     0.8128033354     1.5098513179     -2.9003653665
C     -0.7326154584     -0.8743143467     -3.5158008166
C     -1.3628846378     2.3398865348     -2.1144369244
C     -2.512002086     1.6181671143     -1.6955079326
C     -2.5341095116     0.339881889     -2.3397595146
C     -0.612318351     1.5468898554     -3.0403790026
C     -1.3938469857     0.3291763059     -3.2562109075


