54

 C     1.5335652155     0.0415337129     4.0369910814
C     0.715787601     -1.1507460437     3.9744908869
C     1.3779866416     -2.1313513344     3.2174387686
C     2.6069121784     -0.1520283385     3.0884315118
C     2.5374478062     -1.4713650196     2.5844466421
C     2.618018328     0.9151061496     2.1328979279
C     0.7525229483     1.0784622634     3.4736584627
C     1.4771831497     1.7575484418     2.4290683515
C     -0.6410649482     -0.7729615046     3.569981054
C     -0.5919571123     0.6325282375     3.1788706518
C     -1.3821266456     -1.641607478     2.7941102263
C     0.677859111     -2.8626356304     2.2193190533
C     -0.7332059824     -2.8224620201     2.2045740914
C     2.4558785045     -1.7181385105     1.1851121877
C     1.3769480192     -2.665339096     0.945606635
C     2.8982568569     0.6691529442     0.7577171307
C     2.7254241197     -0.6808885986     0.2183943735
C     2.5918055659     1.7637061884     -0.0914683094
C     0.7766255222     2.4450002979     1.4171652178
C     1.5182749065     2.704803393     0.245286739
C     -1.3040130312     1.1300977377     2.0414616331
C     -0.687985579     2.2271773582     1.2816171758
C     -2.3095447183     -1.1129683029     1.7911046804
C     -2.2691002028     0.2593727905     1.3724947729
C     -1.379974102     -3.0596832588     0.9794906762
C     -2.4647544017     -2.111312592     0.803065419
C     0.7049478629     -2.7195400095     -0.3035895685
C     -0.6898901136     -3.0844844931     -0.2613482465
C     2.2155231368     -0.8395770402     -1.1367894254
C     1.1946745011     -1.8747504526     -1.4126719509
C     2.5204397454     1.578032203     -1.4705043903
C     2.2765449932     0.2892879155     -2.020171242
C     0.9011742828     3.155143106     -0.9757243871
C     1.5812894552     2.5257607261     -2.0660855421
C     -1.2876832908     2.618886219     0.0860040075
C     -0.5077334204     3.2123903402     -1.0273913279
C     -2.7332075274     0.5823281387     0.0145693592
C     -2.3809645546     1.8575339511     -0.4963396392
C     -2.6273230306     -1.8112956997     -0.5675689371
C     -1.5879394425     -2.5511728576     -1.2658655257
C     -2.9708749781     -0.4935675088     -0.9808081143
C     0.3485055013     -1.6818902245     -2.5293600608
C     -1.076595958     -2.0283416953     -2.4351362432
C     1.3507103584     0.4858832082     -3.1283893187
C     0.9008598227     1.9066431514     -3.1269411993
C     0.4345467873     -0.5126507287     -3.4020225189
C     -1.1489196824     2.8900100434     -2.2382202195
C     -2.366821147     2.1158012201     -1.9153234187
C     -0.4827851067     2.2149454767     -3.3085745346
C     -2.7665922461     -0.2231121422     -2.3796970407
C     -1.8301899978     -1.0263030356     -3.0962218644
C     -0.916267842     -0.1434552393     -3.8121159097
C     -2.5579697773     1.1264775913     -2.8494917996
C     -1.3742280932     1.1600160789     -3.7455479729


