54

 C     1.2656977363     -0.0153399304     3.5807510452
C     2.4340880652     -0.2212883686     2.8509431301
C     2.4085326692     -1.5642156305     2.2674816167
C     0.4097231021     -1.1624547904     3.3098913065
C     1.1079119376     -2.0964459752     2.4386214366
C     -0.8913699707     -0.7327795822     3.0542896083
C     0.4777425693     1.1618665956     3.3835612656
C     -0.9161791149     0.7347477922     3.2602340996
C     0.9436438717     2.1510354161     2.5051209127
C     2.8415035325     0.6837509363     1.8198270835
C     2.1109792967     1.8705558028     1.6635716629
C     2.9843216117     -1.4987221573     0.9770743306
C     3.2086452985     -0.1000116468     0.6346635553
C     2.4948855644     -2.3847325355     0.0132141105
C     0.4064871367     -2.7048956527     1.3382646758
C     1.2014991861     -3.0304238442     0.1996283458
C     -1.6801912114     -1.3585950809     2.0082162923
C     -1.0378458263     -2.389126625     1.1505063132
C     -2.7447355046     -0.5752552601     1.4892880774
C     -1.8202663153     1.4992603111     2.556825535
C     -2.845324763     0.8250782933     1.8107574482
C     0.0000716741     2.8983747947     1.6870291603
C     -1.3684182005     2.6415275506     1.7570797491
C     1.8592376668     2.3911043365     0.3388519979
C     0.6097265541     3.1316213994     0.3891949102
C     2.9259581245     0.3661228774     -0.6791238406
C     2.259020206     1.6692265464     -0.8364339968
C     2.5806138013     -1.9905228996     -1.346059262
C     2.7162873484     -0.64153826     -1.7037697359
C     0.6049135812     -3.1856916048     -1.1214606668
C     1.4603319634     -2.5746743457     -2.0826696898
C     -1.6023237598     -2.6180842725     -0.1234732071
C     -0.780824983     -3.0285175701     -1.2725102968
C     -3.1650564546     -0.7102913875     0.109462003
C     -2.6691830602     -1.7623386142     -0.6452278353
C     -3.0943969087     1.5332552681     0.6149635567
C     -2.1832170145     2.645271933     0.5328108697
C     -3.2828197028     0.6098333769     -0.4756805233
C     -0.1863066713     3.2470613573     -0.750196528
C     -1.6123903109     2.93469091     -0.6974977675
C     1.4653204719     1.8872099067     -2.01626752
C     0.3204716457     2.7072499753     -1.9604735412
C     1.7710731087     -0.4243566175     -2.8233938591
C     0.9873176883     -1.6470548777     -3.0338623137
C     1.1671756672     0.7983345421     -2.9594207468
C     -1.2590117394     -2.344106858     -2.4210751482
C     -2.4164477086     -1.5376781429     -2.0257130832
C     -0.4170882066     -1.5550269069     -3.2344766025
C     -2.7132336659     0.8921030022     -1.7562600557
C     -1.9317708563     2.1064605466     -1.8778600837
C     -0.7678028661     2.0678835494     -2.6675841638
C     -0.2658370522     0.8894195658     -3.3113354097
C     -2.312021574     -0.2452888329     -2.5670394237
C     -1.0591176281     -0.2435883156     -3.3532587976


