54

 C     1.6505251351     -0.0352493846     3.9905318695
C     0.8591325395     -1.2263793277     3.7426100633
C     1.5515936883     -2.0062704342     2.7329421678
C     2.8002186948     -0.0638815774     3.229270122
C     2.7478249156     -1.2526652855     2.3965221801
C     2.7577317614     1.0957019847     2.3349327546
C     0.859149555     1.14961159     3.6320441738
C     1.5932455302     1.8917797861     2.6250214903
C     -0.4453667896     -0.7705997315     3.4281689675
C     -0.4408534859     0.7212140861     3.3224218086
C     -1.1993495665     -1.4809775574     2.5018215192
C     0.8251657052     -2.6283452392     1.6817590479
C     -0.6008168844     -2.5440350284     1.733961371
C     1.3909643449     -2.6294583139     0.3115179109
C     2.9029392562     -0.8418084043     1.0477236838
C     2.93569324     0.6395397559     1.0111089827
C     2.3157857663     -1.5480175934     -0.0258808198
C     2.3687604084     1.3460913126     -0.0747856507
C     0.8929842364     2.4976358773     1.5626604346
C     1.5083551137     2.4744630416     0.2366865839
C     -1.2014074446     1.3686059011     2.2954531204
C     -0.5783377098     2.4830597256     1.5941759602
C     -2.1731866992     -0.8293377714     1.6552901682
C     -2.2262750943     0.5917697294     1.5812423989
C     -1.420378216     -2.7331990879     0.5652842943
C     -2.3833958524     -1.6528801169     0.4926731036
C     0.6119609146     -3.160211451     -0.7303410091
C     -0.8682608928     -3.2511261425     -0.5976490071
C     0.854116342     -2.7784746037     -2.0788646599
C     2.1949136183     -0.8612062791     -1.3116458434
C     2.1987469919     0.6180379742     -1.3365354794
C     1.5367426857     -1.5475606519     -2.3607153589
C     1.5244853222     1.2811863199     -2.3930040098
C     0.7863561876     3.0766664997     -0.830698734
C     0.9086229384     2.5341448835     -2.1617621152
C     -1.2640581264     3.0447249324     0.4801112065
C     -0.5405628476     3.5227515675     -0.6485785662
C     -2.78960989     1.1366256007     0.3849102594
C     -2.4637553233     2.4259413483     -0.0238008373
C     -2.7606644523     -1.1081590235     -0.7869488251
C     -2.9851987235     0.3012515644     -0.8287111454
C     -1.4373356507     -2.9163596195     -1.8630238411
C     -0.3883857767     -2.7952343392     -2.8103202317
C     -2.281730175     -1.7385470522     -1.9755568005
C     0.7009967875     -0.823068286     -3.3386381082
C     0.6511592082     0.5476220654     -3.3134719131
C     -0.5316503133     -1.5568330632     -3.4808410725
C     -1.7532270332     -0.9124188479     -3.0605772129
C     -0.3857974587     2.5323916008     -2.7975473193
C     -1.2873322372     3.1295477847     -1.8782286184
C     -2.4099439298     2.4272547522     -1.4874704105
C     -2.6562531028     1.0867997276     -1.9755429797
C     -0.6267923885     1.2565272782     -3.378437508
C     -1.828244803     0.5113575335     -3.0212675661


