54

 C     1.338736655     -0.0144954982     3.6383708496
C     2.5049385129     -0.136379913     2.8822383273
C     2.4829911105     -1.4333897764     2.2358783691
C     0.5049349334     -1.1918228737     3.3264637419
C     1.2237340091     -2.0810685388     2.485907868
C     -0.7703991498     -0.7215372374     2.9585366847
C     0.534888107     1.1541437053     3.5789718605
C     -0.8324187129     0.7071177499     3.2956185646
C     1.0388410725     2.2738020206     2.8596898051
C     2.7848308954     0.8408589479     1.8554532825
C     2.0947830708     2.0426032636     1.869143165
C     2.9431709804     -1.3095887795     0.9007258688
C     2.9699345445     0.1298391889     0.5929131631
C     2.5084672937     -2.2336499146     -0.0175052009
C     0.5645468763     -2.7710537035     1.4273965185
C     1.4068938754     -3.1216614636     0.3201088697
C     -1.4375256641     -1.2647357484     1.7973099071
C     -0.8422406024     -2.4131570818     1.1298934809
C     -2.3500311327     -0.377362287     1.0454225273
C     -1.6989171863     1.5245113726     2.5873881999
C     -2.4648082736     0.970441764     1.4737285887
C     0.1016787939     3.1520533294     2.2548591573
C     -1.2595869992     2.8490429755     2.212918258
C     1.6387866367     2.6130860109     0.5943322318
C     0.5196771692     3.4236649869     0.8655733959
C     2.4483394175     0.5914999961     -0.6432113493
C     1.7187063012     1.8772115477     -0.6469057862
C     2.310434445     -1.8327550093     -1.407865411
C     2.1991173748     -0.408031541     -1.7059328775
C     0.8362729116     -3.5092236997     -0.9133480579
C     1.4699018439     -2.7820862915     -2.0192196939
C     -1.3638356625     -2.7834803702     -0.1580160346
C     -0.5401312098     -3.4531036835     -1.1079869117
C     -2.7034122712     -0.6904390356     -0.3573089848
C     -2.2481554365     -1.9059879992     -0.9099477633
C     -2.9724041655     0.3908315851     -1.3004787854
C     -2.6073052667     2.0411815062     0.473414697
C     -1.7261356847     3.0819955863     0.860674936
C     -0.6133929012     3.4105324511     0.0112058732
C     -2.7244948883     1.7630913803     -0.8663376603
C     0.7109567332     2.127190787     -1.6670196863
C     -0.5317663506     2.8424576128     -1.2932791527
C     -1.7701010407     2.3305119905     -1.806112965
C     1.3477057676     -0.0553989887     -2.774097727
C     0.6456817701     1.219175977     -2.7801950817
C     0.4553704334     -2.3856940595     -2.9457447371
C     -0.7969279407     -2.8677026983     -2.4333568452
C     -1.9187440593     -2.0263039739     -2.3496171801
C     0.5003343617     -1.0633192819     -3.4535788062
C     -2.6130768653     0.2919861372     -2.6578997668
C     -1.7742340561     1.4661278216     -2.9241696973
C     -0.5802280792     1.0127029424     -3.4757829485
C     -1.9491838869     -0.8681760223     -3.1659534219
C     -0.7151984405     -0.4260571361     -3.7532656386


