54

 C     1.3390050555     -0.168377248     4.5956519651
C     0.4876195687     -1.2567044366     4.3290037352
C     1.0832888347     -2.146648605     3.3791283796
C     2.537272778     -0.3605549756     3.7667183197
C     2.3904449021     -1.61435455     3.0163320046
C     2.779013449     0.8181265712     3.048518656
C     0.6779900929     1.0091665285     4.0987574851
C     1.5770833046     1.6837503224     3.2405419863
C     -0.7387924118     -0.7856720897     3.7159039799
C     -0.6235716609     0.6206195217     3.5156206588
C     0.1250140662     -2.4742478092     2.3520676451
C     -1.0547324331     -1.6271127878     2.5963551136
C     0.534168888     -2.6869757819     1.0135722067
C     2.7248974163     -1.6434145296     1.660617583
C     1.8981964638     -2.3673153376     0.6906765514
C     3.0456919262     0.7856157229     1.651695839
C     3.1953132112     -0.4409646999     0.9712010578
C     1.1750108968     2.146068067     1.981142979
C     2.1734404296     1.756938439     0.9988924648
C     -1.0755080827     1.1633951321     2.276795132
C     -0.2169782078     2.0789161896     1.5436432593
C     -1.7641474263     -1.1076784523     1.5243105171
C     -1.936253168     0.3428966109     1.428627374
C     -0.4856965531     -2.5604920354     -0.0413549497
C     -1.7108787908     -1.8460297946     0.2659103295
C     -0.0816061393     -2.5177751934     -1.4045735457
C     2.1392744569     -1.8053527683     -0.5916340127
C     2.8046926546     -0.5350580357     -0.4075371753
C     1.2366372033     -1.9793613033     -1.6549067585
C     1.8455194885     1.6950916925     -0.3555059837
C     2.2728461232     0.5569316501     -1.1479254521
C     -0.4872635113     2.3740858577     0.1841306487
C     0.6257142999     2.3839645814     -0.7667271989
C     -2.4313861416     0.8901402165     0.2187435054
C     -1.8099377828     2.0714561057     -0.3566376824
C     -2.5149420694     -1.3740773666     -0.7716365261
C     -3.0635988744     -0.0287801853     -0.7243557049
C     -0.9406973271     -2.086667117     -2.4715624532
C     -2.2561165483     -1.6708003798     -2.177130499
C     1.1336787762     -1.0317008407     -2.7082714644
C     1.5935030847     0.3016563457     -2.4294557755
C     -0.159977437     -1.2321025414     -3.3674761068
C     0.3447545623     2.42306665     -2.1238904001
C     0.8629990231     1.3665878352     -3.0095563699
C     -2.0870023644     2.4181863305     -1.711833513
C     -0.9879026378     2.7214478546     -2.5668472099
C     -3.404707847     0.3651918619     -2.0243292898
C     -2.9026183307     -0.6795476446     -2.9662647501
C     -3.0345102627     1.6327134559     -2.5305800148
C     -0.7657831688     -0.2070410881     -4.0974844656
C     -0.1637641986     1.1157835444     -3.9910417206
C     -1.2167986401     2.0741726631     -3.8437603934
C     -2.2150953253     -0.0006330948     -3.9811206596
C     -2.4728036249     1.4394709616     -3.8411593412


