54

 C     1.5622115629     0.0665645308     3.9036542614
C     0.7263451147     -1.0401493964     3.5804348592
C     1.2577242849     -1.7529485371     2.4497128909
C     2.5106078721     0.164579036     2.845779495
C     2.4075464018     -0.9765752906     1.9763032417
C     2.4505573638     1.5031968677     2.2902378558
C     0.7390793107     1.2499822714     3.8451122446
C     1.3139020743     2.1882656013     2.9136375489
C     -0.6534170539     -0.592576047     3.5682037249
C     -0.6448307007     0.8657717322     3.7200928477
C     -1.5095211745     -1.1989650661     2.6665887619
C     0.3933630661     -2.3745186114     1.5176048951
C     -1.0251947251     -2.2179467093     1.7590192414
C     0.85388205     -2.5811695565     0.1280935064
C     2.6509710226     -0.8501726431     0.5880865334
C     2.0126180733     -1.7987922154     -0.3489851436
C     2.6949044378     1.6398463094     0.9355407642
C     2.9700960555     0.4796749955     0.1140813337
C     1.8801556424     2.5371440965     0.1143957991
C     0.4458897281     2.9428328043     2.0880377198
C     0.7449522329     3.1091729947     0.6524189098
C     -1.4899166501     1.635799477     2.8850524183
C     -0.9557678285     2.7552035316     2.1970260886
C     -2.4832482068     -0.4090115275     1.9108962945
C     -2.4243173132     0.969303264     1.957269451
C     -1.9106078605     -2.2681273196     0.6465500906
C     -2.7403077332     -1.0713386653     0.6528464034
C     -0.0780003411     -3.0378551163     -0.8309856165
C     -1.5069222093     -2.8661039576     -0.5484545526
C     0.0926310675     -2.8525298894     -2.2686677942
C     2.1209136373     -1.5531306     -1.7363379059
C     1.1992758785     -2.1052996856     -2.7243047151
C     2.6522492156     0.8127327787     -1.232105841
C     1.8523251028     2.0296052518     -1.2380475748
C     2.4506377315     -0.1939289464     -2.1778846678
C     0.6968916322     2.0696431754     -2.0552737831
C     -0.5044953674     2.9981329263     -0.113336967
C     -1.510739675     2.7509485674     0.8420942267
C     -2.4320320044     1.6966581086     0.6802708614
C     -0.5824160075     2.3874116435     -1.3956498434
C     -2.9213055232     -0.373368091     -0.5655679525
C     -2.5563138169     1.0546343685     -0.582950924
C     -1.7424857355     1.5513841515     -1.687982318
C     -2.1375421691     -2.4522343513     -1.7294393491
C     -1.2095819174     -2.5870534413     -2.8450016298
C     -2.7750293386     -1.1548997825     -1.7692261738
C     -1.7010351171     0.7537934652     -2.8953209059
C     -1.4039589904     -1.4847506306     -3.6891017825
C     -2.3001197841     -0.5379227832     -2.9392657332
C     0.9868173505     -1.1039958937     -3.7493214773
C     1.6538038802     0.1077334218     -3.2904700798
C     0.7027047486     1.1932830826     -3.2011033803
C     -0.3118417656     -0.7473155295     -4.1387735869
C     -0.5121075295     0.6693818404     -3.6754825616


