54

 C     1.4768712466     0.0255169042     4.041352707
C     0.6926859768     -1.1691951182     3.8783665264
C     1.3931681874     -2.0937364445     3.0636678764
C     2.5852629856     -0.0811636748     3.1131198866
C     2.537833835     -1.3572302057     2.5099848569
C     2.5758720985     1.0253955079     2.2050545631
C     0.673093208     1.0676038499     3.5003714391
C     1.3779348084     1.7915473423     2.4839254355
C     -0.6633562084     -0.8123232815     3.4858355762
C     -0.6557707983     0.6221743803     3.1703916349
C     -1.3507522858     -1.656053857     2.6331723149
C     0.7426067675     -2.741586115     1.9850661362
C     -0.6549607242     -2.7005735309     1.9029063563
C     2.5477054696     -1.5318123124     1.0872819798
C     1.4878194047     -2.4494830985     0.7476799323
C     2.9574495229     0.8720393429     0.8342350576
C     2.8612306143     -0.4476041796     0.2074409202
C     2.6760373947     2.0020468332     0.0439648832
C     0.6715558407     2.4638996856     1.451855131
C     1.5129091642     2.865279281     0.3642582833
C     -1.3603130075     1.1486091694     2.0427359168
C     -0.7291492837     2.1883793866     1.2141314872
C     -2.3524590208     -1.1137036944     1.7350926451
C     -2.3856231116     0.2925091781     1.4485643292
C     -1.2990415809     -2.8214480094     0.6236217547
C     -2.5319100046     -2.0482625967     0.6603072972
C     0.8648179494     -2.4423127207     -0.5227280247
C     -0.5557355705     -2.8436569044     -0.5907950218
C     2.4144595119     -0.5322369691     -1.1730205034
C     1.4277855802     -1.5548857923     -1.5441775555
C     2.7264988666     1.9269684291     -1.3599011775
C     2.4864625031     0.6635442584     -1.9749439844
C     0.9969052582     3.3641266885     -0.8397508209
C     1.8424783441     2.9499558277     -1.9275562495
C     -1.2401928117     2.4683623826     -0.1394353196
C     -0.3799891782     3.0307490372     -1.1519074469
C     -2.9681175224     0.666102322     0.1921811829
C     -2.3363525139     1.7173553259     -0.6298176197
C     -3.1746026053     -1.6649964411     -0.5226191662
C     -3.5386494688     -0.2775472175     -0.6680653108
C     -1.3033306084     -2.5758389704     -1.7959198331
C     -2.6481242768     -2.1180751117     -1.7596042377
C     0.6424790597     -1.342253658     -2.7291157239
C     -0.6310834692     -1.901444506     -2.8703730733
C     1.4975824342     0.9331605505     -3.0276295737
C     1.0228202017     2.3082443755     -2.8441947055
C     -0.3821413962     2.4779927248     -2.4877537593
C     0.5873352574     -0.0176249579     -3.3646894789
C     -2.4634799985     1.3391109753     -2.0187582199
C     -3.2281179507     0.1254235988     -2.0415607895
C     -2.7475958135     -0.9889248764     -2.7255795631
C     -1.5306823619     -0.886784973     -3.4371113839
C     -1.3323383294     1.5118581186     -2.8995678011
C     -0.8357916097     0.3228037107     -3.5799897761


