54

 C     1.4881535479     -0.2581397607     4.1277995695
C     0.6756487041     -1.3488217209     4.0217908465
C     1.2161912344     -2.3000811087     3.0299647492
C     2.5947554977     -0.4133514849     3.1726704192
C     2.4375187479     -1.7166840101     2.5126943148
C     2.5763251337     0.7078317068     2.3452561502
C     0.6935978286     0.9128017933     3.73509831
C     1.3887908087     1.5604201791     2.716489836
C     -0.6757953268     -0.9492710676     3.6333627746
C     -0.6715202414     0.5066860239     3.4513770664
C     0.1729948738     -2.5819207572     2.1384250589
C     -1.005386792     -1.741490077     2.533526303
C     0.4120452156     -2.7854378942     0.7386493524
C     2.6728052696     -1.8234582044     1.1439614049
C     1.741203359     -2.5377245326     0.2960216498
C     2.9543343813     0.6226134931     0.9428379561
C     3.0977661916     -0.6739654934     0.3556058339
C     2.5234868055     1.6724754687     0.1051303676
C     0.6943627854     2.2786755928     1.7006371407
C     1.4728439039     2.5891046247     0.5359071013
C     -1.3528404575     1.0570371152     2.3576838326
C     -0.7389342357     2.1262672649     1.559384169
C     -1.8821890417     -1.250718015     1.5322164041
C     -2.2562911302     0.1574686601     1.6223465899
C     -0.7066147021     -2.6289403376     -0.2062915862
C     -1.9393972754     -1.9325830603     0.2496917922
C     -0.4120065452     -2.5838525621     -1.5786490524
C     1.9609079779     -2.1016895722     -1.0610714504
C     2.7490279461     -0.8961447774     -1.0315157471
C     0.9572175346     -2.2740056856     -2.0033532084
C     2.4217618765     1.5032044441     -1.3481631076
C     2.4406205997     0.1818410644     -1.9260778735
C     0.8350131596     3.0437741573     -0.6199199688
C     1.4641525311     2.4242535582     -1.7990207828
C     -1.3858459341     2.5338580591     0.3069771692
C     -0.5532030973     3.0097779028     -0.7863485751
C     -3.0201083888     0.6811592296     0.5819699359
C     -2.6224415068     1.9559297686     -0.0730667098
C     -2.8404965869     -1.4159678872     -0.7064671077
C     -3.5188008035     -0.1820839278     -0.4201492801
C     -1.3098552853     -1.9496525392     -2.5516400642
C     -2.5325434486     -1.4256720669     -2.1484389736
C     0.8638124824     -1.3480766437     -3.0744970999
C     1.5160237595     -0.0704107891     -3.004632995
C     -0.5016759716     -1.1954987592     -3.4713277178
C     0.4597960354     2.1279893023     -2.7453113356
C     -0.8235614769     2.6189216318     -2.1862375171
C     0.5143514565     0.9009470186     -3.4145987531
C     -0.7484574166     0.1936368139     -3.7031664497
C     -3.0025893419     1.8559628324     -1.4517776178
C     -3.5705768152     0.5732762702     -1.6378794636
C     -2.9360930052     -0.1441583009     -2.6918746427
C     -2.007433081     2.0009203183     -2.5015122123
C     -1.98085174     0.7329667315     -3.3044867853


