54

 C     1.3908283118     0.0108713157     4.2767575342
C     0.6227599435     -1.1333440407     3.8862359958
C     1.433111656     -1.9845087022     3.1106370466
C     2.6342700764     -0.0303246138     3.4746686334
C     2.6705730627     -1.2351644247     2.7605058778
C     2.7527245818     1.1764440658     2.7305670285
C     0.6847343459     1.1361281502     3.7935324387
C     1.5494449729     1.9626348426     3.0202713954
C     -0.6438790404     -0.709642014     3.278259956
C     -0.6029818777     0.7287099529     3.1885596774
C     -1.2573282751     -1.4579905449     2.2488170399
C     0.9167158475     -2.5900187488     1.960072486
C     -0.4852071264     -2.5616304724     1.6799426596
C     2.7611338311     -1.2624170947     1.3353013943
C     1.7939338116     -2.2369972037     0.8606599211
C     2.8979771205     1.1751536986     1.3160940927
C     2.8940836871     -0.0490640606     0.5537665821
C     1.077888963     2.5462109517     1.8442736048
C     2.0349319525     2.2358473348     0.798172362
C     -1.1411092624     1.4031925397     2.0655775242
C     -0.3189196819     2.4639403254     1.4749451716
C     -2.1998257166     -0.7618165369     1.366990704
C     -2.0847202119     0.6840140057     1.1924633071
C     -2.7852989556     -1.5213899411     0.3088654944
C     -0.8263290965     -3.011755721     0.3894914824
C     -2.0761107169     -2.704767986     -0.1486186618
C     1.3647660132     -2.2762709821     -0.4875954817
C     0.1257452392     -2.9261552577     -0.7233774951
C     2.4048877559     -0.0241287332     -0.8379693494
C     1.8095191702     -1.2271872405     -1.4075387226
C     1.7007901276     2.3498960885     -0.5426457982
C     2.0700623569     1.2593535866     -1.4589769764
C     -0.5886986472     2.8770666632     0.1717471244
C     0.4636926647     3.0509694468     -0.790409452
C     -2.4928288395     1.2750413187     -0.0818082163
C     -1.7885081871     2.4441424726     -0.5537805093
C     -3.2877746716     -0.9073987276     -0.8608401635
C     -3.0815922926     0.4566892028     -1.1164947157
C     -2.0262204498     -2.7079354798     -1.6019580873
C     -0.6273480708     -2.7659053209     -1.9592383667
C     -2.8101178501     -1.6545588613     -2.0453839032
C     1.1272352531     -1.1624239461     -2.6620476168
C     -0.1442649195     -1.8799397557     -2.9114986471
C     1.4629492307     1.2697553773     -2.7489056688
C     1.0639135847     0.0563601993     -3.3443266193
C     -0.1500647288     2.9968891021     -2.0643461472
C     -1.5897025039     2.6796336648     -1.9228596152
C     0.3763530168     2.2083065273     -3.059169427
C     -2.7024247231     0.6138027901     -2.5481790859
C     -2.3517643835     -0.725937675     -3.0262508786
C     -1.0629283166     -0.9475599755     -3.5913958715
C     -0.2945642241     0.196701823     -3.9447069824
C     -1.9343600737     1.7120665084     -2.9270193412
C     -0.7301537039     1.4864120762     -3.7198347442


