54

 C     1.5777726455     -0.1910610645     4.1974507812
C     0.7274364362     -1.3830998986     4.2608220379
C     1.1196769043     -2.2316341847     3.2386998399
C     2.4592622674     -0.3521867815     3.0437320086
C     2.2272553878     -1.6140241081     2.4720496986
C     2.3565554729     0.8043909441     2.1454480034
C     0.7450077111     0.8522365296     3.8124218603
C     1.2808022146     1.5955112935     2.6458815966
C     -0.6538299608     -0.9969551773     3.9303168069
C     -0.6665328387     0.4167992274     3.7699553612
C     -0.0603465148     -2.640484824     2.4620896982
C     -1.1796746757     -1.7999870698     2.8506595756
C     0.1192336169     -2.9335855701     1.1423249818
C     2.3254140624     -1.790435577     1.0539874544
C     1.4048761276     -2.6937866471     0.4581385494
C     2.5842335547     0.6837393587     0.7525715207
C     2.7750542993     -0.6685842825     0.2181145536
C     2.020099982     1.7199345848     -0.1110533768
C     0.4144197056     2.2697612116     1.7632264358
C     0.8900642897     2.5107667511     0.3897779228
C     -1.468241181     0.9792466327     2.7972111929
C     -1.0033073018     2.1025239569     1.9833685552
C     -2.0138799134     -1.2233663404     1.8251187199
C     -2.3035221582     0.168686384     1.9382852937
C     -0.9280046225     -2.6854965328     0.1657736567
C     -1.9732520644     -1.7596245793     0.4486095109
C     1.1334069627     -2.6736065265     -0.9436329407
C     -0.3247472905     -2.7627878971     -1.1298914722
C     2.6917837165     -0.8250765206     -1.1803647478
C     1.8712230025     -1.8651399489     -1.7928421987
C     2.1505856275     1.5603134044     -1.5237953125
C     2.5700366475     0.3071177733     -2.0267571174
C     1.1884597588     2.1071361663     -2.4819715008
C     -0.034798208     3.012635125     -0.5547770268
C     0.1353998697     2.867555988     -1.9924515566
C     -1.8744798879     2.2020371876     0.8881672025
C     -2.6301470478     0.9581105338     0.7825826204
C     -1.4652431505     2.863521775     -0.28312177
C     -2.5244080735     -1.0072202268     -0.6899738866
C     -2.9109687629     0.4132337832     -0.4931744342
C     -0.9293774856     -2.1793297888     -2.2164610951
C     -2.1263945009     -1.3893228794     -2.0081446846
C     1.2685119879     -1.3265425799     -3.0177723659
C     1.7783341607     -0.0126780757     -3.2035858065
C     0.9483178599     1.0955525929     -3.535409583
C     -0.1104211149     -1.5469088032     -3.2699957743
C     -2.1580921245     -0.4464359294     -3.0971022004
C     -0.38088014     0.8369677423     -3.9696636457
C     -0.8768513573     -0.5029390325     -3.8286775941
C     -1.1866533848     2.6868564145     -2.5781171035
C     -2.1430086286     2.5754986939     -1.4672239485
C     -2.8605359445     1.3389954633     -1.60989717
C     -1.444118805     1.7076800087     -3.5076733705
C     -2.5315070933     0.8654912999     -2.9232537962


