54

 C     1.3251847651     -0.235008379     3.5051355847
C     2.4955267852     -0.4429183621     2.7888795912
C     2.4410198275     -1.7540164431     2.1415706512
C     0.4868047667     -1.4387452327     3.3783465996
C     1.1772336922     -2.3620879982     2.5080612102
C     -0.8206200219     -1.0428545096     3.0838661018
C     0.5141550645     0.9101121921     3.2233996172
C     -0.8365565029     0.438711577     3.0107277879
C     1.0221158055     1.9228677441     2.3822499396
C     2.9857017342     0.529228997     1.848645439
C     2.3121272679     1.7476570729     1.7222767349
C     2.8083020779     -1.5877919112     0.7986509905
C     3.3296330293     -0.2194841615     0.6406581136
C     2.0362836658     -2.2004443189     -0.2795618224
C     0.466668197     -3.0302171167     1.5247875204
C     0.9680221417     -3.048103564     0.1393983985
C     -1.6266887492     -1.8214297684     2.1704531399
C     -0.9808419028     -2.8910293048     1.4572840517
C     -2.6787440728     -1.1323543986     1.5065864962
C     -1.7371582157     1.1175311955     2.1666649176
C     -2.803639335     0.3103270004     1.6087205146
C     0.1511253961     2.5904295237     1.4600892495
C     -1.2355739589     2.2768590683     1.3836576816
C     2.2388401902     2.3945147248     0.4234456313
C     0.9167900768     2.9379528834     0.2587116093
C     3.2656985799     0.3828877087     -0.58217305
C     2.8574654595     1.7939932431     -0.6901931017
C     1.9405635475     -1.5282197286     -1.5802346965
C     2.716823209     -0.3269113002     -1.7493505709
C     0.6995595479     -1.647833961     -2.3835127568
C     -0.1642286532     -3.2062808253     -0.6937656929
C     -1.3664855192     -3.1657780382     0.1097747036
C     -0.3657891715     -2.4481885267     -1.8651388983
C     -3.1209924285     -1.504011533     0.155712111
C     -2.3391304805     -2.4264806191     -0.5780652814
C     -1.7505162238     -1.9846269947     -1.8537528603
C     -3.4887798801     0.7505316924     0.448596345
C     -3.6456629383     -0.3616818815     -0.4877645589
C     -1.8747373968     2.591948911     0.1393348964
C     -3.0328911516     1.8574233647     -0.2631058833
C     0.2970587689     3.0204933848     -1.0314481694
C     -1.1176515046     2.8589268471     -1.0583699809
C     2.3198552127     1.9842038574     -1.9811044064
C     2.3175827645     0.6701349399     -2.6633994153
C     1.0570455694     2.576220899     -2.1910537265
C     0.2806700492     -0.5611637779     -3.2189217493
C     1.1396228115     0.5677019302     -3.3956206848
C     0.3809554508     1.7864875855     -3.2205479525
C     -2.0962786137     -0.7325854985     -2.4249211069
C     -3.1102830433     0.0795468259     -1.7336802848
C     -2.9479176845     1.5178733834     -1.6740256303
C     -1.7770472749     2.1116657477     -2.1530230202
C     -1.0723741399     -0.0498196929     -3.1443730592
C     -0.9578466004     1.4238355362     -3.0885772585


