54

 C     1.4082419257     -0.3010427076     4.3870178216
C     0.6362799317     -1.4069406795     4.0863267518
C     1.2082377294     -2.1490402267     3.0038020093
C     2.5366764105     -0.298988     3.4119793161
C     2.3840186324     -1.4430058929     2.5216506493
C     2.5750282778     0.9504942656     2.8261570515
C     0.6039531193     0.8717693006     4.1144879379
C     1.3752032154     1.7256883742     3.3019981434
C     -0.7084849615     -0.9711183776     3.6383658781
C     -0.7301084771     0.4607297522     3.62129568
C     0.1596752567     -2.4681644704     2.0816653302
C     -1.0455574778     -1.6813209334     2.4780633717
C     0.446616783     -2.6457779462     0.7413433607
C     2.531063119     -1.2958170736     1.1208901211
C     1.7728680329     -2.2234436083     0.2782679536
C     2.6496180663     1.127990944     1.4140670071
C     2.7538007618     0.0271454582     0.5250753747
C     0.8200844944     2.3450707301     2.1901026363
C     1.723921791     2.1771446289     1.0360564328
C     -1.3277640184     1.1162699178     2.5146237021
C     -0.605784139     2.2599686062     1.9329534158
C     -1.820832737     -1.0819626174     1.4592423951
C     -2.1039708195     0.3348943896     1.5415105232
C     -0.6785089739     -2.6079617707     -0.2147011341
C     -1.8355620792     -1.7599651535     0.1584664394
C     -0.3902874177     -2.8532926934     -1.5571280717
C     1.9628459587     -2.1523915003     -1.0906280573
C     1.0228232913     -2.7699922499     -1.9787222834
C     2.4409552914     0.2600705481     -0.8877923218
C     2.4066697041     -0.8836566381     -1.7212525093
C     1.2771113449     2.360308091     -0.2672719941
C     1.7065368617     1.451705259     -1.3273648404
C     -0.9947788212     2.7394628159     0.7008680762
C     -0.0088095641     3.0160628643     -0.3753600121
C     -2.6711668198     0.9908045889     0.369151479
C     -2.2166389681     2.3278403795     0.0546465567
C     -2.6073449461     -1.2031192364     -0.8573569602
C     -3.1037320578     0.175078199     -0.7345263648
C     -1.1956638619     -2.2539443398     -2.6137244234
C     -2.309861454     -1.4735266802     -2.2652218069
C     1.0540213881     -2.0715098861     -3.1817052475
C     1.8192122463     -0.8465916099     -3.0047549451
C     -0.2743661488     -1.7218319712     -3.5963336332
C     0.9433591977     1.4222901424     -2.5791200553
C     0.9746093475     0.2359298481     -3.3788293254
C     -0.3006653551     -0.339631657     -3.9208410052
C     -0.6919040353     3.0475130115     -1.5621059971
C     -2.1154689216     2.7573443444     -1.2967689943
C     -0.2704058714     2.2420833386     -2.6966364979
C     -3.138444268     0.6994058866     -2.0596915948
C     -2.561824405     -0.2710181273     -2.9752512036
C     -1.4997735692     0.3670550363     -3.722661234
C     -2.5459620735     1.951266283     -2.3370620633
C     -1.4397599568     1.7336690232     -3.3072628688


