54

 C     1.5469287037     0.1474660411     3.9495776113
C     0.7487514982     -1.0645173372     3.7936722362
C     1.49928025     -1.9644353457     3.0576598694
C     2.6726251232     0.0501633118     2.9824214546
C     2.7017197363     -1.2463313203     2.5078293146
C     2.6059618841     1.1271884436     2.0292214474
C     0.7748060878     1.1919264442     3.4993523514
C     1.5007774113     1.9604487175     2.4880463047
C     -0.564007549     -0.7050700657     3.2421947469
C     -0.5753777656     0.7213488968     3.1275466782
C     -1.2146227455     -1.515165204     2.2511585577
C     0.9322001429     -2.7496387681     2.0336272249
C     -0.4912937685     -2.7106073731     1.7679623065
C     2.7406251717     -1.5307906009     1.1177356788
C     1.8282784188     -2.6523259875     0.9041542015
C     2.7142387838     0.8941969468     0.6160315959
C     2.7897116992     -0.4921397492     0.1327774874
C     2.1448642716     1.926793469     -0.2713219713
C     0.7646008475     2.694038385     1.6095577217
C     1.2291486394     2.8882111123     0.2555335151
C     -1.3004744326     1.397577074     2.120084302
C     -0.6913839052     2.5780733945     1.55111409
C     -2.1699051174     -0.8492202787     1.361495858
C     -2.2290659433     0.6187550414     1.2996066844
C     -2.6134991732     -1.5834855942     0.2003950046
C     -0.8816380838     -3.2912721417     0.5311807038
C     -2.0221482354     -2.8006554186     -0.1520245197
C     1.3819878194     -2.9818680817     -0.3728908521
C     0.1043453712     -3.5391221694     -0.5005382162
C     2.2732128197     -0.8239202779     -1.2188911225
C     1.631833882     -2.0688712451     -1.4850727967
C     1.9795082188     1.6322196427     -1.667979072
C     1.9395114827     0.2211672749     -2.1109573942
C     1.1049508767     2.3685622566     -2.46906712
C     0.1116452192     3.384511994     -0.5144424247
C     -1.0858741977     3.0706988649     0.285722554
C     0.0888173033     3.2113984506     -1.9004788001
C     -2.749355919     1.2622551191     0.1358298895
C     -2.2220651968     2.5138037338     -0.3437219243
C     -2.9463310644     -0.8862914341     -1.0501495697
C     -3.1175698643     0.4800246764     -1.0498349324
C     -1.7358366507     -2.7361282841     -1.6126621599
C     -0.42141096     -3.1112791998     -1.7949376447
C     0.4994620952     -2.1677426037     -2.3827601375
C     -2.2430939074     -1.525805601     -2.149665457
C     0.9138626616     0.0879115545     -3.0998012812
C     0.4344896679     1.416628579     -3.3752749254
C     0.0040039926     -1.0254884314     -3.0781540709
C     -1.4495863132     -0.729677817     -3.0501039925
C     -1.1592001979     2.8594726016     -2.5534140572
C     -2.253529717     2.5109768795     -1.7894519257
C     -2.7491662475     1.1932902412     -2.2204123188
C     -0.9042662605     1.699875022     -3.4531850265
C     -1.8714468839     0.6428661814     -3.1842957071


