54

 C     1.5124732642     0.0288057593     3.8323620518
C     0.7219939293     -1.1211793429     3.6555045385
C     1.3457005775     -2.0201918148     2.7095236983
C     2.5728888261     -0.0210533862     2.8842008915
C     2.5567588334     -1.3362626093     2.2883893594
C     2.3930948242     1.0752279681     1.9789720243
C     0.6523875093     1.1531999109     3.4912260289
C     1.2152257118     1.852179199     2.3910067138
C     -0.6801083383     -0.7332353148     3.5067786243
C     -0.7136268366     0.741645968     3.4584825296
C     -1.4661030394     -1.4401128132     2.6225763709
C     0.5350381549     -2.7075441203     1.7369115237
C     -0.8846597991     -2.4645563192     1.7401623625
C     1.1233265158     -3.0007369749     0.4558746803
C     2.9940616217     -1.4606802134     0.9651535522
C     2.4096633237     -2.4466336739     0.1493040099
C     2.7279034304     0.9877305855     0.5773035867
C     3.2100454124     -0.2724066768     0.1219993494
C     2.077750198     1.90768838     -0.3677890832
C     0.3772452015     2.4786358247     1.421032166
C     0.8880991526     2.6667513853     0.056174815
C     -1.5545839626     1.3787691631     2.549546147
C     -1.0362135767     2.3675927975     1.6275224988
C     -2.5283358389     -0.7685660765     1.8756149352
C     -2.5949215656     0.6306524363     1.8610198947
C     -1.6371237995     -2.4612716032     0.5285935052
C     -2.7277299206     -1.4883515936     0.6502106065
C     0.3723080189     -2.9354239612     -0.7640347063
C     -1.0125268822     -2.6824345519     -0.7636907755
C     2.45694888     -2.0368490072     -1.2349384414
C     2.9857320956     -0.6830560677     -1.2513161704
C     1.2250586354     -2.3104566197     -1.8146487189
C     2.2000845654     1.578751767     -1.7577706268
C     2.4953833728     0.2133063748     -2.1595231556
C     1.2721732316     2.0674354731     -2.7116653835
C     -0.0616078426     3.0632044109     -0.9350037763
C     0.1776117032     2.8065052579     -2.3154068495
C     -1.9420902674     2.4207425005     0.5025443149
C     -2.9059155115     1.3202953545     0.6255771382
C     -1.4922672894     2.834412395     -0.7302637098
C     -3.2109041507     -0.8351300368     -0.481862758
C     -3.3118075494     0.6185498018     -0.5030550133
C     -1.582135346     -2.029405971     -1.9209518974
C     -2.7114059667     -1.2267440394     -1.7673990527
C     0.674771109     -1.4241373427     -2.820869778
C     1.438573767     -0.2094270193     -3.1181134398
C     0.7871861122     0.9408845093     -3.5484431418
C     -0.7255033812     -1.3722202237     -2.9456224036
C     -1.0333920904     2.2209566114     -2.9234880693
C     -2.0492206755     2.2301345735     -1.9556492953
C     -2.894792108     1.0861137645     -1.8364578512
C     -2.5952141946     -0.0472543221     -2.622203065
C     -0.6462738962     1.0197037366     -3.6227286448
C     -1.4010241286     -0.1545542027     -3.3906720899


