54

 C     1.5280112185     -0.0571020918     3.808368971
C     0.7287926139     -1.2410557089     3.7379141376
C     1.3580682157     -2.1779090673     2.8509632573
C     2.5992391031     -0.1532756257     2.8482447872
C     2.4998155477     -1.4494289285     2.2277295185
C     2.6006914616     1.0052533923     2.0304561227
C     0.7204876812     1.0325360375     3.4196075274
C     1.3882168866     1.7645690602     2.393138732
C     -0.6449241157     -0.8617286059     3.5139027367
C     -0.6281622638     0.5741960567     3.1724069899
C     -1.4498437405     -1.7292919427     2.781499892
C     0.5408329161     -2.9930956851     2.0558437741
C     -0.8690038031     -2.9044793824     2.2063288975
C     0.7880284203     -3.1091615355     0.5970863168
C     2.7068724743     -1.5701932304     0.8486611684
C     1.8397404415     -2.4151186229     0.0319930892
C     2.9417695637     0.9067552064     0.6425193426
C     3.003010237     -0.4080768     0.0518992048
C     2.4968587099     1.9409348626     -0.2016120426
C     0.6400238201     2.4245859485     1.4077860021
C     1.4008946705     2.8152332271     0.2432362944
C     -1.381175775     1.0873083189     2.0871765198
C     -0.788608338     2.1416189499     1.2358745682
C     -2.4171507964     -1.1812930469     1.8283648029
C     -2.4187844678     0.2077227952     1.5078569386
C     -1.4710827742     -3.0554382262     0.8993092711
C     -0.4870491301     -3.1701489561     -0.1088051741
C     -2.5602941546     -2.1516093543     0.7515827924
C     -0.6877683666     -2.5297518382     -1.3911357023
C     1.697324271     -1.796991079     -1.2744152271
C     2.5047931662     -0.6092991928     -1.2931003258
C     0.4877082985     -1.8845707823     -2.0398073027
C     2.3767436383     1.8042525246     -1.6356375319
C     2.2353664561     0.4735653028     -2.1835508256
C     0.7975436873     3.3580408041     -0.8711581501
C     1.4837796675     2.8305923586     -2.0643706085
C     -1.4063739489     2.4971434264     -0.0461681727
C     -0.6118882182     3.1927731948     -1.0791047234
C     -2.987666078     0.5705803837     0.2448138244
C     -2.5016398664     1.7279138856     -0.518511201
C     -2.8802137122     -1.7397103268     -0.5318018943
C     -1.9759822044     -2.0003957288     -1.6577857375
C     -3.3615185647     -0.4161086093     -0.6892441655
C     -2.6430682101     1.4205232516     -1.9334733723
C     -2.1389030655     -0.8958360907     -2.5944765755
C     -3.0215608513     0.061438242     -2.012917814
C     0.2954956429     -0.8884407211     -3.0246457946
C     1.2141237328     0.2501404465     -3.1793165214
C     -1.0467835491     -0.4291603515     -3.3662868564
C     0.5286450392     2.6049478529     -3.0414308223
C     -0.8073007123     2.9294870706     -2.4703411757
C     -1.6923826669     1.9088842205     -2.8776275325
C     0.4412467866     1.3412153131     -3.6657077502
C     -0.9649949942     0.9464594079     -3.6721325201


