54

 C     1.422023169     -0.1177771671     3.871240264
C     0.624477029     -1.2505042181     3.6910989873
C     1.289990474     -2.1078245969     2.7261566455
C     2.5647152716     -0.1811606739     2.9563123596
C     2.4577060254     -1.3562696694     2.1841587341
C     2.6784700754     1.0770555145     2.2957970689
C     0.6543853426     1.0061335509     3.4525289829
C     1.4094409773     1.7954633347     2.545433334
C     -0.7603406614     -0.8396958335     3.4368555882
C     -0.7139649138     0.5843319769     3.151126389
C     -1.5365166173     -1.6557724321     2.6384073262
C     0.5083722876     -2.862300682     1.8816770155
C     -0.9286687842     -2.8487967405     2.0425867305
C     0.8097881269     -2.9486004156     0.436642064
C     2.7056005436     -1.3340881962     0.7539260345
C     1.8572459373     -2.1699291285     -0.1361564211
C     3.2019754901     1.0885479255     1.0100929119
C     3.2459979963     -0.132503696     0.2219788958
C     2.7704703083     2.1267455759     0.1347099082
C     0.739194845     2.4766901245     1.4917650852
C     1.5422036363     2.8206667536     0.3558251264
C     -1.3985586485     1.1447596196     2.0529467795
C     -0.7214265458     2.236572597     1.3054703541
C     -2.4361397928     -1.0725976156     1.671397483
C     -2.4028639648     0.313961411     1.3509039982
C     -1.4751784104     -2.9967952707     0.7681477365
C     -0.4372839894     -3.1228825323     -0.2440876781
C     -2.5438630052     -2.041586701     0.5797740645
C     -0.6772414429     -2.6046218449     -1.5450006126
C     1.6636927297     -1.7603618486     -1.4966888636
C     0.4217099724     -1.9966481423     -2.2099534101
C     2.9973388696     0.2698523354     -1.1742100185
C     2.7920594323     1.6767308531     -1.2230991917
C     2.2173896304     -0.5352345824     -2.0022271618
C     0.9375301517     3.0153473996     -0.9405848441
C     1.6713810491     2.2323874252     -1.9219814634
C     -1.2843821048     2.6286147296     0.0929792277
C     -0.4470063592     3.1083733459     -1.0264129213
C     -2.9253146277     0.7293852249     0.0421374152
C     -2.4655418665     1.9740354929     -0.4909635404
C     -2.8529062224     -1.6425087837     -0.6824049501
C     -2.0191104192     -2.0915016074     -1.8382930085
C     -3.3066919769     -0.2891778065     -0.9253486684
C     -2.204455701     -1.1478095095     -2.8219945881
C     -3.1081443119     -0.0774688199     -2.3135684321
C     0.2242984435     -0.909264262     -3.1471046956
C     1.2659533683     0.0553497828     -2.9422875184
C     0.9575504775     1.463710312     -2.8946477998
C     -1.090575251     -0.4932607974     -3.499516655
C     -1.0748071568     2.7246542927     -2.2231455875
C     -2.3811512886     2.1664942044     -1.9010958609
C     -2.641582225     1.1274003442     -2.8088355196
C     -0.4162201733     1.8570882616     -3.1609739765
C     -1.3810252193     0.8865911855     -3.5714931333


