54

 C     1.312798906     0.0966905756     3.8603841023
C     2.4661584165     -0.081211895     3.023085118
C     2.3735482708     -1.3706250173     2.4670564728
C     0.4491137376     -1.0993037701     3.7167501085
C     1.0680950677     -1.9551671415     2.7981840097
C     -0.9162544471     -0.6476730665     3.4860221029
C     0.5179127133     1.1977327274     3.6553284578
C     -0.8983403064     0.7803197099     3.5022535246
C     0.8042971319     2.2098893949     2.6652783209
C     2.7460859732     0.8545683755     1.9467300198
C     1.9622016598     2.0625459716     1.812575847
C     2.7946621924     -1.2964033109     1.0983006037
C     3.0681283372     0.0996308624     0.7602566253
C     2.1747701356     -2.1007787035     0.1728794812
C     0.2930333597     -2.6142307872     1.7493849729
C     0.9390980021     -2.8572775479     0.5011742744
C     -1.6766384009     -1.2495128221     2.4897804828
C     -1.1155888358     -2.3564743529     1.6845766182
C     -2.4926396809     -0.4535676435     1.615005221
C     -1.4855778889     1.5561592653     2.5009528467
C     -0.4720662218     2.5539879146     2.0826859138
C     -2.3505973927     0.967832668     1.5147277817
C     -0.5487221067     3.0974951808     0.8134135785
C     1.8633433073     2.6139571905     0.4939565609
C     0.6645037741     3.3131220083     0.1108956681
C     2.8080476913     0.5791402092     -0.5640479533
C     2.3355809797     1.9173281355     -0.6752765202
C     2.1296272371     -1.733659032     -1.2191522781
C     2.4456315498     -0.3952328357     -1.6183593683
C     0.2244582893     -3.0127727427     -0.7128293022
C     1.0572807077     -2.4822451334     -1.814391797
C     -1.8132019332     -2.4093795347     0.4520060416
C     -2.7292383309     -1.2400122706     0.4317497874
C     -1.1953391837     -2.8223514679     -0.7654509306
C     -3.1175368323     -0.6489867298     -0.746216205
C     -2.4488814486     1.5849127043     0.1723884027
C     -1.5757272419     2.6609518091     -0.1533189926
C     -2.9205983207     0.7892714519     -0.9211337571
C     0.4009481704     3.1064493588     -1.2727355823
C     1.4438281633     2.2957077742     -1.789497211
C     -0.9761862182     2.7313490298     -1.4613714055
C     1.7538600019     0.0602997891     -2.7935061415
C     1.1290889031     1.4047117397     -2.7991472123
C     0.4683721735     -2.0509134115     -2.9976210987
C     0.8975172038     -0.7852782528     -3.5013558726
C     -1.7832265272     -2.3536514981     -2.0183566619
C     -2.8190908166     -1.3138689341     -1.9812057921
C     -0.9805139146     -2.1024962461     -3.1372738259
C     -2.4461713964     0.9524799832     -2.2737770863
C     -1.3172450564     1.8234525504     -2.515879418
C     -0.2216895438     1.3004445411     -3.3005920469
C     -0.3231469775     -0.0242266388     -3.8677144288
C     -2.534729946     -0.3319436524     -2.9483109835
C     -1.4330430765     -0.8211864723     -3.7292610437


