54

 C     1.1002903375     0.0301629829     3.8769253513
C     2.2598738215     -0.248548288     3.1703348485
C     2.2134181193     -1.6268188748     2.6516442386
C     0.2496908375     -1.1605982829     3.7315992368
C     0.8908167159     -2.0938842805     2.8051663923
C     -1.0163696288     -0.7280856241     3.4578715613
C     0.3048325943     1.2012701402     3.560945508
C     -1.0550800158     0.7597158254     3.4640993066
C     0.7508753774     2.0687237336     2.5417730088
C     2.7006915485     0.5773911216     2.0801366491
C     1.9766278373     1.7424976224     1.7870115257
C     2.8451211906     -1.6525510978     1.3900522619
C     3.137801677     -0.2769327925     0.9828915906
C     2.3353358892     -2.5423783177     0.4376624912
C     0.1539940448     -2.5859853702     1.6365752914
C     0.9324633093     -2.9482572757     0.5196406125
C     -1.7745318189     -1.1934158539     2.3278240249
C     -1.2154211595     -2.1022231911     1.3685670911
C     -1.9212407607     1.1751292698     2.4584723902
C     -2.5391911868     -0.04570901     1.8996714212
C     -0.1871861442     2.6181860348     1.5974994275
C     -1.5552487984     2.2121194712     1.5182558567
C     1.8035734674     2.1347884895     0.4177813098
C     0.5358045106     2.8355712469     0.3517654447
C     3.0101025099     0.1162508698     -0.3799532074
C     2.2961846004     1.3699479967     -0.6911590197
C     2.6057770361     -2.2656788653     -0.9092967012
C     2.9572240607     -0.9582805751     -1.3474994883
C     0.4012078381     -2.9626297373     -0.8535552547
C     1.4866567994     -2.7337199148     -1.7325672367
C     -1.7176942429     -2.0286966406     -0.0109250866
C     -0.8879770079     -2.4086274468     -1.1544496971
C     -3.0846439587     -0.0163214011     0.6628527362
C     -2.810380447     -1.1196712896     -0.2641490444
C     -2.2646137739     2.2858826263     0.2278962984
C     -3.1952336464     1.2275537403     -0.0944572106
C     -0.132297002     2.9835378672     -0.8287763897
C     -1.5870354666     2.8964706879     -0.8933526568
C     1.5941657949     1.5192531446     -1.9692700012
C     0.4629771158     2.4210223907     -2.0456461474
C     2.2742477488     -0.7677313444     -2.5966828472
C     1.376028432     -1.8865835626     -2.832981874
C     1.5821191427     0.4208613339     -2.9064522262
C     -1.0576929759     -1.7185044326     -2.4584579482
C     0.1172816506     -1.3678924601     -3.2147606492
C     0.3319579243     0.0363090021     -3.5739608102
C     -3.0769689508     -0.614378535     -1.5347471491
C     -3.4066805281     0.8163209526     -1.4339651106
C     -2.177833999     -0.8245780082     -2.6362771009
C     -1.8723435755     2.4966840736     -2.2279355155
C     -0.6086450241     2.169315077     -2.909086577
C     -0.7427076079     0.9063628382     -3.6055684666
C     -2.7511940293     1.4424251834     -2.5003073848
C     -2.048930183     0.4149287301     -3.3186750642


