54

 C     1.4760096219     0.0568618166     3.9454297282
C     0.6908052559     -1.1294511646     3.9726224695
C     1.3753160556     -2.1453580079     3.2587256428
C     2.5647650942     -0.1738548603     2.9752526583
C     2.5615076932     -1.5341780643     2.630957827
C     2.5295480676     0.8297849089     1.9572145137
C     0.6865238785     1.0772031816     3.3811907165
C     1.3837482026     1.686200853     2.2613537934
C     -0.6795529001     -0.7729626625     3.5577994819
C     -0.6798227987     0.6503692029     3.20607682
C     -1.3977725727     -1.6363101904     2.7600766331
C     0.7152503596     -2.9096914907     2.2631620472
C     -0.7109074602     -2.8049748191     2.1444495217
C     2.5760522374     -1.8973846596     1.2603277073
C     1.4803637743     -2.8429374859     1.0313042186
C     2.7736075136     0.5024054561     0.5920022203
C     2.8680837489     -0.9207656138     0.2569378781
C     2.3025403267     1.4593191434     -0.4180547108
C     0.6606550989     2.3219941488     1.2671030384
C     1.2950866091     2.4561610791     -0.0526899379
C     -1.4083824762     1.1418920002     2.1036328846
C     -0.8042607126     2.2385880988     1.3324966401
C     -2.3164468319     -1.1072361241     1.7545016302
C     -2.3570890754     0.2731025674     1.4055613513
C     -1.3155740876     -3.0383813845     0.9129343203
C     -2.3897024883     -2.0725057999     0.7106000516
C     0.8567592024     -2.9559921334     -0.2615938384
C     -0.5775586583     -3.1012849493     -0.3136670965
C     2.521944665     -1.2935054989     -1.0762966112
C     1.479017533     -2.287706638     -1.3473745605
C     2.3180735682     1.0556481404     -1.7839066531
C     2.4653266728     -0.329172966     -2.0795897314
C     1.3986774925     1.6076352802     -2.7764206947
C     0.5611163223     3.1195575962     -1.0571622227
C     0.6189292147     2.6983383963     -2.4603085608
C     -1.5229930361     2.7358733618     0.2592940259
C     -0.8282031915     3.4222233734     -0.8164490447
C     -2.8093506138     0.6326920491     0.0550197833
C     -2.6181684482     1.9845464213     -0.3530026245
C     -2.4275952756     -1.7028171342     -0.631652657
C     -1.331671327     -2.3918061337     -1.3200198342
C     -2.8270185922     -0.3834275962     -1.0003483698
C     0.7324873953     -1.8189543794     -2.4909415642
C     1.4332008519     -0.6972721652     -3.0423111249
C     0.7850151539     0.4515387548     -3.4859426082
C     -0.7079975093     -1.7684415601     -2.4314044012
C     -2.5162023044     -0.0033451955     -2.3437718967
C     -0.6372525903     0.4326328337     -3.6751218586
C     -1.3710425206     -0.6289369798     -3.0103255906
C     -0.7436781251     2.8086794733     -3.0154399071
C     -1.5833171349     3.3511179019     -2.0028279137
C     -2.6332251079     2.3479418471     -1.7359905969
C     -1.3595862129     1.6458629705     -3.5434463432
C     -2.5560395881     1.3604848008     -2.7299666298


