54

 C     1.401869375     0.0215350311     3.9935049641
C     0.6074699623     -1.17327196     3.7672810012
C     1.3264419189     -2.0623851105     2.95858712
C     2.5320208485     -0.0708999222     3.0857466635
C     2.5684020048     -1.3509971989     2.518776528
C     2.5332575489     1.0426820108     2.1684579485
C     0.6203423036     1.0759184551     3.4920385505
C     1.316850849     1.784996601     2.4411266938
C     -0.7176464414     -0.8194173457     3.3196884461
C     -0.7124873485     0.6226034197     3.1597687704
C     -1.4000547517     -1.6043354289     2.3465165681
C     0.7440332058     -2.6698544592     1.8228945631
C     -0.6616118595     -2.5694577717     1.5352137169
C     2.7127711366     -1.5421722711     1.1257129369
C     1.7008995962     -2.5184956593     0.7294553993
C     2.9342752789     0.878344584     0.8116168858
C     3.0219716345     -0.4595216862     0.2307606908
C     2.5385052149     1.9556986726     -0.0466558927
C     0.6019002984     2.4735261056     1.4159562055
C     1.3523164956     2.7621204065     0.2574430603
C     -1.4858830356     1.2776560132     2.1552951104
C     -0.8600420248     2.3078220653     1.3042398242
C     -2.5185905575     -0.9409770238     1.7441941758
C     -2.5600045658     0.5211656933     1.642898455
C     -3.121088718     -1.4620649356     0.5976412192
C     -1.1000842918     -2.8083144316     0.1500551202
C     -2.4120097422     -2.3756871102     -0.2548280785
C     1.2820090154     -2.592821963     -0.5736518446
C     -0.1061976624     -2.8488644991     -0.8826229293
C     2.7001385688     -0.6315680096     -1.1957027122
C     1.855210014     -1.7253810789     -1.5772082769
C     2.6170530234     1.8247103891     -1.4343840357
C     2.655140856     0.5267486118     -2.0492376648
C     0.7206896161     3.1081096001     -0.9992917206
C     1.5688071549     2.6335756995     -2.0585103597
C     -1.4550580257     2.5713696161     0.0502870724
C     -0.6635971663     2.9525601613     -1.1121646591
C     -3.2075879889     0.8580149822     0.3918135695
C     -3.668594033     -0.3663775501     -0.2038108262
C     -2.6195113344     1.8322238449     -0.4195247043
C     -2.65022413     -1.9207536955     -1.5954157816
C     -3.3840690646     -0.6413804758     -1.5288578624
C     -0.3368454093     -2.2820339734     -2.1885834624
C     0.8588180955     -1.5971643852     -2.6119988005
C     -1.6106606405     -1.759601243     -2.518143369
C     1.7329140282     0.5898835656     -3.1475978311
C     1.0329144874     1.8886428597     -3.0930254396
C     0.7654140779     -0.3985987695     -3.3595725157
C     -1.2319645149     2.2711447968     -2.2732060114
C     -2.4344916882     1.5823440138     -1.84736
C     -2.7438019553     0.3147951451     -2.3818549609
C     -1.702228811     -0.4049560291     -3.1198292846
C     -0.37708141     1.670439266     -3.2199714641
C     -0.561019448     0.2487223769     -3.5239607415


