54

 C     1.4592089151     -0.0743957297     3.8090959489
C     0.6708042528     -1.2062448514     3.7137198192
C     1.3447582079     -2.1771820493     2.842753599
C     2.6025994743     -0.1915303851     2.9122893584
C     2.5409385649     -1.4918762741     2.2924639769
C     2.624790392     0.9524368187     2.1001397101
C     0.6717527307     1.0650297608     3.3903117157
C     1.3860452086     1.7369887078     2.4037986573
C     -0.7172349418     -0.8038310497     3.4358311913
C     -0.69333539     0.6149495302     3.1157556318
C     -1.4960856761     -1.6458474234     2.6677204342
C     0.5577362773     -2.9602095339     2.0228342049
C     -0.8877073591     -2.8564009744     2.1059959695
C     0.8811561634     -3.1154566526     0.589198246
C     2.8085572333     -1.601740545     0.9250136173
C     1.9629711098     -2.4315961323     0.0597071799
C     3.038288387     0.8718225614     0.734949029
C     3.1618436974     -0.4318507357     0.1545184604
C     2.6209675742     1.9404188323     -0.1234050438
C     0.685094394     2.4298917922     1.3664613163
C     1.4398353246     2.7758887144     0.2279124399
C     -1.4227010107     1.1442567111     2.0297575905
C     -0.787327123     2.2304712632     1.2492927281
C     -2.415813809     -1.0976915181     1.6932239055
C     -2.4084472441     0.2799509414     1.3516857042
C     -1.4098361704     -3.0213209293     0.8262437562
C     -0.3461469434     -3.1548213002     -0.1639703081
C     -2.4859939564     -2.0806869723     0.6138978022
C     -0.4843572974     -2.5311540379     -1.4261762202
C     1.8538561778     -1.7977040298     -1.2389239347
C     2.7189845626     -0.6433796592     -1.2189345962
C     0.6491221398     -1.8107550565     -2.009042918
C     2.5763054929     1.7588813698     -1.505025511
C     2.4637487074     0.4369954408     -2.0504922031
C     0.7875337812     3.1633453484     -0.9886137988
C     1.4939922849     2.5495080091     -2.0685462243
C     -1.4042081371     2.6541396243     0.0691139805
C     -0.6265726034     3.1986382043     -1.03579811
C     -2.9518869496     0.6695312219     0.0356213871
C     -2.569410483     1.9418959438     -0.5039455086
C     -2.7585857354     -1.7042734928     -0.6584741261
C     -1.8326530331     -2.0686108405     -1.7597468175
C     -3.2670094018     -0.3670043713     -0.9231607458
C     -2.0387166895     -1.1367591905     -2.7456038007
C     -3.0749789842     -0.1570615381     -2.3098203813
C     0.4137134131     -0.6851636716     -2.9453527854
C     1.3149842869     0.4138679234     -2.9476120778
C     0.8057148186     1.791776126     -3.0365312641
C     -0.9557218807     -0.3961368879     -3.3694511239
C     -1.272425985     2.8211045513     -2.2368848103
C     -2.5389201569     2.1595485265     -1.908619811
C     -2.6928007643     1.076849084     -2.796267047
C     -0.5823303743     2.0361221222     -3.2187481953
C     -1.4140954929     0.9263767133     -3.5501599971


