54

 C     1.5272047957     -0.0265613358     3.627406143
C     0.7227784916     -1.218599237     3.5176018312
C     1.323292849     -2.036069649     2.5306295615
C     2.6481208131     -0.0875353724     2.7848263503
C     2.5388464044     -1.3219444942     2.0544122427
C     2.6454738649     1.1511875031     2.0055847766
C     0.7140982648     1.0836271037     3.2577572372
C     1.3775229372     1.8531349961     2.2496358273
C     -0.6497821342     -0.8168111306     3.3616500236
C     -0.6494273818     0.6564630051     3.1174731288
C     -1.4911716403     -1.6044263633     2.6202272425
C     0.4952283835     -2.7652701378     1.609786082
C     -0.9345541991     -2.6915639972     1.806476009
C     0.9489789197     -2.8884882358     0.2595576801
C     2.9187071432     -1.378375091     0.6837239824
C     2.1553275453     -2.2170793198     -0.1938477278
C     3.1462228088     1.1385941407     0.7402439694
C     3.4789646901     -0.1550481117     0.0954299374
C     2.5899208256     2.0162478349     -0.2761709278
C     0.6280233013     2.4090099605     1.1873410399
C     1.291710327     2.6039221333     -0.1162401952
C     -1.4598646996     1.2389767763     2.1421396932
C     -0.8442175008     2.263567902     1.2534857023
C     -2.5755524993     -0.9869349005     1.8693470289
C     -2.6098390001     0.4315735196     1.6388128906
C     -1.8154441463     -2.8531111062     0.7140070633
C     -2.8688227076     -1.8591447086     0.7939404929
C     0.0216355594     -2.8846618127     -0.8479250251
C     -1.3559335885     -2.8391065384     -0.6290093416
C     1.9842109348     -1.8860682917     -1.5911168275
C     0.6067767962     -2.1597410505     -1.9548685164
C     3.4287590666     0.058765932     -1.271691351
C     2.9857321581     1.4566695072     -1.526518892
C     2.6520152217     -0.7843533376     -2.1438614629
C     2.1211580416     1.4552266421     -2.5973910747
C     1.9169435727     0.0596854943     -3.0389714661
C     0.46800579     2.7686312368     -1.3169077489
C     0.8743908789     2.1276977561     -2.5459532488
C     -1.5764083437     2.6786835245     0.1383101793
C     -0.9341874496     2.9434572085     -1.1397679779
C     -3.296332073     0.8682080865     0.4871547801
C     -2.9057746189     2.1126114016     -0.1369250813
C     -3.1908812485     -1.382163283     -0.5041353881
C     -2.1950384627     -1.9249588813     -1.4190506214
C     -3.6015487921     -0.0518575551     -0.6086569673
C     -0.1718707489     -1.2441010159     -2.7192607506
C     0.5476814835     -0.106888269     -3.2657439803
C     -0.0698478229     1.2280450632     -3.1884032111
C     -1.6214734566     -1.0976909024     -2.4224518556
C     -1.8447832329     2.4244760904     -2.1160094868
C     -3.1003145593     2.0503016744     -1.5168971204
C     -3.3113891236     0.6466094902     -1.826130148
C     -1.4181292123     1.3615188701     -2.9688640076
C     -2.2651432062     0.1816612652     -2.6641905132


