54

 C     1.3684584034     -0.2119323112     4.1701470062
C     0.543129148     -1.3139432323     4.053285033
C     1.1236788783     -2.3020607903     3.1307270688
C     2.5161869029     -0.4127010228     3.2997101328
C     2.4137638035     -1.7646825953     2.711117487
C     2.5739969741     0.6779290979     2.4246016131
C     0.6169634781     0.9519868196     3.7202382697
C     1.338524937     1.5053596832     2.6587828352
C     -0.779222147     -0.9342805115     3.6290445845
C     -0.7310989511     0.4974069977     3.38408206
C     0.1474151226     -2.5599939067     2.1591566897
C     -1.0650124232     -1.7578033057     2.5045950185
C     0.4885211576     -2.7408426029     0.7579009528
C     2.7795121391     -1.9360644807     1.4000335533
C     1.8788863437     -2.6287541464     0.4604012974
C     3.0779421422     0.5299589316     1.0870339047
C     3.357418141     -0.8166164753     0.6350338242
C     2.6463499213     1.4727453015     0.1166213681
C     0.6719607032     2.1309188628     1.5436959079
C     1.4202034842     2.2852764851     0.3604456925
C     -1.4085860333     1.0112744752     2.2678450413
C     -0.7810255102     2.0036957663     1.3999390191
C     -1.9016910545     -1.3091476349     1.4939287137
C     -2.3130236162     0.0945829648     1.5807310249
C     -0.4902190472     -2.4225173444     -0.2795458205
C     -1.7939796532     -1.8845903749     0.1469013927
C     -0.0738063625     -2.1167283647     -1.6393456464
C     2.2595472456     -2.2491035788     -0.8443854022
C     3.1917318847     -1.1172563293     -0.7265577638
C     1.3434085672     -1.9791951798     -1.8617449689
C     2.6272135297     1.1673275573     -1.2700736853
C     2.8492633151     -0.1613032235     -1.7048154337
C     1.8340497749     -0.776937995     -2.5672695299
C     0.7971377541     2.6107214788     -0.888932573
C     1.5688760254     1.9440007439     -1.9138228524
C     -1.4332350131     2.4019149364     0.1597413274
C     -0.6191672672     2.7629541003     -1.0080403709
C     -3.082930141     0.6129144013     0.5636219238
C     -2.7400434253     1.8566910745     -0.0896648707
C     -2.6830908121     -1.4128481585     -0.8139768817
C     -3.5469638721     -0.2685818706     -0.4854171126
C     -0.976368497     -1.4317307491     -2.5902174655
C     -2.3406207569     -1.2513697128     -2.213174412
C     0.9626131849     -0.0091741262     -3.2781224767
C     0.9299887421     1.4445739472     -3.0402130076
C     -0.414436541     -0.4433326565     -3.5002265244
C     -1.1819798052     2.5721086319     -2.3355095844
C     -0.3980845582     1.856838662     -3.2848294232
C     -1.1733303621     0.7249878829     -3.8088636632
C     -3.3340638247     1.7970056101     -1.4177839976
C     -3.8910746212     0.4462414651     -1.6217115304
C     -3.146255422     -0.137901774     -2.7201635682
C     -2.5316818649     2.0967831121     -2.5046142912
C     -2.4957501216     0.8952154646     -3.4103198857


