54

 C     1.4186358     -0.2224955074     4.5480398912
C     0.6573884027     -1.3298140619     4.2987305763
C     1.258523961     -2.1770289335     3.2669672705
C     2.5331134074     -0.2799359268     3.5669949779
C     2.379294007     -1.4841069798     2.7151704939
C     2.5404020092     0.9219260891     2.9077787449
C     0.58070714     0.9428929725     4.2078844916
C     1.3364585295     1.7223671182     3.3496348953
C     -0.6833053319     -0.9641033411     3.8220090553
C     -0.7265569938     0.4643672533     3.6938981692
C     0.2046727473     -2.6126119311     2.4218987481
C     -1.003148538     -1.7815711474     2.7198903286
C     0.5136682727     -2.843812312     1.1031469876
C     2.5147823037     -1.3999023013     1.2760070889
C     1.7204901612     -2.3198116769     0.5273546568
C     2.6204343811     1.0460540147     1.4789124574
C     2.7239735555     -0.0916391895     0.6110906224
C     0.7888095402     2.3064590908     2.1969377702
C     1.7244131653     2.1023309972     1.0940362495
C     -1.2985309348     1.0209922577     2.5139238564
C     -0.5969704581     2.1437835752     1.8768811996
C     -1.7587301256     -1.2717347695     1.6318729567
C     -2.0219591324     0.1488976684     1.5726994762
C     -0.5153388175     -2.764364029     0.0864482826
C     -1.6976045614     -2.0214860442     0.3559059074
C     1.4465173581     -2.1469315046     -0.8727902519
C     0.1107929722     -2.6326248689     -1.1884022566
C     2.3758201213     0.1049781241     -0.7857384172
C     1.940646537     -1.0429423129     -1.6075780315
C     1.3395753358     2.2874433897     -0.2351785174
C     1.8910833721     1.4014858741     -1.2440267028
C     -0.9473462827     2.5195782409     0.5692456294
C     0.0286730122     2.8170646717     -0.4388223716
C     -2.5370102928     0.6964566909     0.310753531
C     -2.0884537168     1.9798135857     -0.1313370623
C     -2.3864639318     -1.5352753265     -0.7684110683
C     -2.975947215     -0.1972259896     -0.7325886592
C     -0.6038185304     -2.2119343207     -2.3369452434
C     -1.9852263809     -1.8355211132     -2.1206094501
C     1.3847859642     -0.8570889909     -2.9002964476
C     0.1549227283     -1.5185565019     -3.3411956414
C     1.3637383773     1.5493978092     -2.5583150056
C     1.3626027363     0.4560430385     -3.4906049496
C     -0.6042396759     2.7661396986     -1.7244551544
C     -1.9827981569     2.3226013515     -1.5347095279
C     0.1460591265     2.3196789162     -2.8166434509
C     -3.0895382246     0.2323922856     -2.065478913
C     -2.5534736241     -0.8147962755     -2.9509373174
C     -2.5521588525     1.4827964291     -2.5124570432
C     -0.4967715172     -0.630112058     -4.2717129896
C     0.2900939112     0.5617200738     -4.4048059783
C     -0.5378015146     1.6626030841     -3.9282515575
C     -1.8498939694     -0.2329567286     -3.9979147514
C     -1.8579921872     1.2401198618     -3.7639075546


