54

 C     1.1138523562     -0.0182189238     3.9045666008
C     2.2795507831     -0.2531815593     3.2208238992
C     2.2101224104     -1.5934339559     2.582566426
C     0.2548432585     -1.218473     3.7020060576
C     0.889635908     -2.1031578855     2.7386723791
C     -1.0109899223     -0.7798096854     3.4556642484
C     0.3144582107     1.1619061366     3.6017270252
C     -1.0389809455     0.7117070857     3.4557220786
C     0.7858562647     2.0764467905     2.6459802409
C     2.805266485     0.6747000672     2.2479257177
C     2.087742852     1.8608692102     2.0022707094
C     2.8241734453     -1.5065057534     1.3286626963
C     3.2651632227     -0.1141431512     1.1107876182
C     2.2463330192     -2.2123512856     0.2607711573
C     0.1558713551     -2.5638689925     1.5759913449
C     0.9184445399     -2.7541641316     0.3874567446
C     -1.791466647     -1.251715908     2.3466072746
C     -1.2606157824     -2.1649781555     1.3896766742
C     -1.8721043847     1.125503598     2.426018902
C     -2.5268284722     -0.0917525839     1.8977735788
C     -0.1175789897     2.6066642816     1.6313203793
C     -1.4516112914     2.1350487307     1.471046723
C     2.0076616939     2.3789607529     0.6545072907
C     0.6693615053     2.9143066156     0.4518555262
C     3.2204825308     0.407215125     -0.1749274337
C     2.6329332781     1.7179596609     -0.4076730838
C     2.3997468466     -1.7332895864     -1.0942156939
C     2.8785956139     -0.4376172239     -1.3145819601
C     0.3109235049     -2.7558045365     -0.9423116484
C     1.2754727535     -2.2149727397     -1.8642899539
C     -1.8737430877     -2.1666336626     0.0476370979
C     -1.0869261979     -2.5672246666     -1.144297871
C     -3.0886800105     -0.0932696504     0.6679687165
C     -2.94549358     -1.2548319636     -0.1793767493
C     -2.0642969671     2.1333944108     0.1299737306
C     -3.0605294252     1.1222946816     -0.175257373
C     0.0938964106     2.9127527613     -0.8077474332
C     -1.3125845563     2.6034375815     -0.9843596453
C     2.0301957102     1.7163322021     -1.7269712014
C     2.2401087127     0.4045680056     -2.3208122103
C     0.8173064173     2.3757466879     -1.9509940218
C     0.8458283843     -1.5118475152     -3.0016247624
C     1.2979198295     -0.1194549407     -3.1952000332
C     -1.4859232142     -2.1095721693     -2.4610544555
C     -0.5039496163     -1.600762247     -3.3581121357
C     -3.2733847568     -0.7859184339     -1.4963635784
C     -3.2931433297     0.7056205769     -1.4782862545
C     -2.6305316883     -1.2262638424     -2.6136277844
C     -1.4876891608     2.0703079257     -2.3304546043
C     -0.1486159105     1.8548308037     -2.8927683279
C     0.1365085048     0.6674941061     -3.5935674901
C     -0.942233899     -0.2618807405     -3.8311581826
C     -2.5179201274     1.1542583676     -2.5979055421
C     -2.2224338728     -0.0272272853     -3.3980414047


