54

 C     1.4230672922     -0.0865255013     3.8959286319
C     0.5935584086     -1.2333696792     3.7406914726
C     1.2164100444     -2.0954266844     2.7831507299
C     2.5324693637     -0.1854343389     2.9595798549
C     2.3415859624     -1.3536506488     2.1765737244
C     2.6668381154     1.0635280532     2.2885003934
C     0.678132152     1.0292832782     3.4816266514
C     1.4472435804     1.8295870694     2.5598865698
C     -0.7679590622     -0.8101211695     3.4824025653
C     -0.6864072009     0.6128849266     3.1523851939
C     -1.5652631494     -1.64218174     2.716614136
C     0.4092136845     -2.8884505636     1.9791722045
C     -0.9985330223     -2.846086024     2.1739311567
C     0.6495639943     -2.9889986655     0.5168719523
C     2.4756710359     -1.3190158641     0.7215533672
C     1.5686191064     -2.133167353     -0.1326940371
C     3.1579556113     1.0505293817     0.9862746824
C     3.0452619657     -0.1511418589     0.1708663451
C     2.7884237089     2.1295574703     0.1580337959
C     0.7944260451     2.524368135     1.5249902604
C     1.6175374348     2.8815086437     0.3883524151
C     -1.3248934511     1.1352683084     2.0125937255
C     -0.6468374957     2.239847976     1.2789151377
C     -2.4324137074     -1.0761341905     1.682954796
C     -2.3123184245     0.2777523043     1.292610958
C     -1.6238953466     -3.0857389588     0.9044759407
C     -0.6230825924     -3.3099445409     -0.0901029081
C     -2.6346498445     -2.1072883061     0.6652668078
C     -0.9012724568     -2.9160599818     -1.4025563164
C     1.2666649489     -1.6915688707     -1.5351071257
C     0.0934795394     -2.1642072353     -2.1632997921
C     2.763308815     0.2874264869     -1.2070531203
C     2.7756948606     1.6994158127     -1.2335636765
C     1.8571332986     -0.4312263741     -2.0583648231
C     1.0359888512     3.1769601457     -0.9076221623
C     1.799577598     2.4376199355     -1.9359768772
C     -1.1716650173     2.629732511     0.0463163133
C     -0.3437000669     3.2281275322     -1.0232212479
C     -2.7355003916     0.6377423436     -0.074214788
C     -2.2571359696     1.8960771696     -0.614129633
C     -2.9169057927     -1.7616833778     -0.6543164357
C     -2.177642469     -2.381940143     -1.7088076291
C     -3.100891525     -0.3638938392     -1.0117131527
C     -0.640256297     -1.337316716     -3.1261225321
C     -2.0198998892     -1.412279813     -2.7664784203
C     -2.714866192     -0.2194478471     -2.4264107854
C     1.1701838053     0.3377783461     -3.0481843923
C     1.1252489756     1.7979666147     -2.9775636648
C     -0.1292576291     -0.1056005212     -3.5565538666
C     -0.9507387674     2.8860784209     -2.2734279547
C     -2.1557008611     2.1035190991     -1.9981553896
C     -2.2342102049     1.0008790548     -2.9214820998
C     -0.228281458     2.1903871756     -3.2447365912
C     -0.9990799144     1.0140746413     -3.6486603604


