54

 C     1.5611695169     -0.2135383469     4.2600358758
C     0.7198062838     -1.3903766907     4.2736399116
C     1.1471290587     -2.2904219129     3.3018425756
C     2.4620061848     -0.3586458867     3.1495463236
C     2.2208099782     -1.6209062247     2.5301259639
C     2.362338202     0.8001508295     2.2847985612
C     0.7308106432     0.8777757512     3.9079504713
C     1.2960140333     1.6389220931     2.8250483424
C     -0.6485815478     -1.001862904     3.9233432412
C     -0.67289305     0.4340013684     3.7919842233
C     -0.030500986     -2.7127219845     2.5449306283
C     -1.1586642141     -1.8250271525     2.872383934
C     0.1480648643     -3.0839787369     1.2579397253
C     2.2920810678     -1.7859778369     1.106946033
C     1.4488673402     -2.828108992     0.5819946669
C     2.5314794709     0.6842544686     0.8818913466
C     2.5673634453     -0.6415815629     0.2319467886
C     2.0236275622     1.7656317826     0.1071467801
C     0.4430203633     2.3447586732     1.9413835681
C     0.9701531999     2.6173059401     0.634325906
C     -1.4459644508     0.9771165656     2.7871517223
C     -0.971989317     2.1168134676     2.0001023752
C     -1.9354148772     -1.2565945418     1.798163233
C     -2.209158217     0.1350045468     1.8793299145
C     -0.8919361992     -2.8707136592     0.2483510639
C     -1.8737561732     -1.8469379806     0.4272784739
C     1.1915156129     -2.8758780285     -0.7699140969
C     -0.2668421823     -3.0337246946     -1.0042201972
C     2.2739751251     -0.7108676578     -1.195162844
C     1.637804889     -1.8961462299     -1.6794200575
C     1.9157999139     1.7398543446     -1.3164742906
C     2.0516309059     0.5138581958     -2.0211415469
C     0.1663846865     3.0318117291     -0.4544219014
C     0.8731822199     2.6835394515     -1.6881777477
C     -1.715839135     2.1483754575     0.7963894387
C     -2.4394815487     0.8920909963     0.6907341324
C     -1.2455126102     2.7839696946     -0.4016770498
C     -2.2939971752     -1.1055096089     -0.7564450596
C     -2.6867160126     0.3078578982     -0.5840473731
C     -0.640249797     -2.3397811995     -2.1334580307
C     0.6182720488     -1.8136942019     -2.7282802847
C     -1.7832572475     -1.4659222763     -2.0832058153
C     1.3780543064     0.4229095365     -3.2933165669
C     0.5762823984     -0.7753687804     -3.5920975208
C     0.2018631758     2.5763568301     -2.8882377507
C     0.5706829988     1.4997143161     -3.7738822896
C     -1.9373439043     2.4598184945     -1.5945562473
C     -2.6757926985     1.2031345178     -1.683387379
C     -1.2745438963     2.5972328211     -2.8647111545
C     -1.8814196596     -0.5481411691     -3.1813003981
C     -0.7319772989     -0.3628085732     -4.0983745768
C     -0.6580353705     0.995609466     -4.3921578366
C     -2.5186211848     0.720488301     -3.0409161066
C     -1.7917007424     1.6868792755     -3.8177210985


