54

 C     1.5951742372     0.0939365431     3.7990602537
C     0.7997956183     -1.0690607155     3.6138908877
C     1.4160063278     -1.9053043042     2.5935866628
C     2.590502996     0.0850966964     2.7994154103
C     2.518052061     -1.1624692924     2.0515389272
C     2.5788528327     1.3347694271     2.0837983345
C     0.76990893     1.2618140271     3.5360190619
C     1.4391044927     2.1187189039     2.5998756585
C     -0.5317591973     -0.6326280936     3.3376305917
C     -0.5590977947     0.8443321406     3.2667551993
C     -1.3278534247     -1.3773600422     2.4632525006
C     0.6200034033     -2.7349760059     1.7386340077
C     -0.7987143729     -2.5612186141     1.779495805
C     1.1906202766     -3.0865876418     0.4603465581
C     2.7836384527     -1.1656355474     0.6345694398
C     2.2145299291     -2.1990391853     -0.1382326139
C     2.8319212156     1.3402819381     0.7116187999
C     2.9849857858     0.0947804006     -0.0331843241
C     2.1832224596     2.2996623349     -0.154392685
C     0.6665823608     2.8466282349     1.7072642504
C     1.1331753414     3.0895872326     0.3351075528
C     -1.3451946167     1.5028215147     2.2649912103
C     -0.7589669586     2.6423627228     1.6265501763
C     -2.2570398655     -0.7409950137     1.5938898885
C     -2.3058134861     0.6998464766     1.4755486328
C     -1.6071087255     -2.7735879079     0.6085780881
C     -2.48989006     -1.6271185529     0.4610553085
C     0.375652969     -3.5425392988     -0.5717419485
C     -1.0480429847     -3.3653577122     -0.5373927366
C     1.9160294409     -2.0359553661     -1.5388069713
C     0.8705045267     -2.9638596197     -1.8390874815
C     2.5122485754     0.3076109816     -1.3673079587
C     2.0726005158     1.6950845691     -1.4680817338
C     1.8992921437     -0.7307960852     -2.1424707792
C     1.0550600874     2.0593076896     -2.3260651121
C     0.0016270164     3.3553758602     -0.5021386495
C     -1.1860920312     3.0567922334     0.3013786988
C     0.033049176     2.9918961718     -1.8688068154
C     -2.7922637919     1.2057911997     0.2567287924
C     -2.2980878727     2.4671767057     -0.2949549848
C     -2.8268533291     -1.100575226     -0.806997973
C     -3.0882189075     0.3150542883     -0.8737927667
C     -1.4278964021     -2.8498746666     -1.8328851233
C     -0.1992618481     -2.6043436727     -2.6193001892
C     -2.2523988463     -1.7414073401     -1.9860568217
C     0.7911482583     -0.368719381     -3.0506134119
C     0.4194564781     1.0260171631     -3.1672902778
C     -0.2823875672     -1.3127226904     -3.2259458518
C     -1.6557895575     -0.8830295713     -3.046033101
C     -1.1797729284     2.5780745039     -2.4823892812
C     -2.3304424099     2.3480616428     -1.7246796231
C     -2.8097814819     1.0210201935     -2.0557306637
C     -0.9250432014     1.3986160704     -3.3331549865
C     -1.9789742365     0.4546437005     -3.1130458423


