54

 C     1.4929514869     0.1839479743     4.0355448054
C     0.6977634479     -1.0569324633     4.0547638206
C     1.337898222     -1.9629428927     3.2007708803
C     2.52746534     0.0549533375     3.0169161883
C     2.4842110977     -1.2550650033     2.5595927237
C     2.3470595932     1.112687583     2.043470489
C     0.6640669923     1.2229928958     3.6632028801
C     1.1914903032     1.8786881443     2.4504175995
C     -0.6845728005     -0.7193851071     3.8262801488
C     -0.723678394     0.7586534948     3.667138836
C     -1.4306243745     -1.4730771683     2.9090394595
C     0.630937061     -2.6183981432     2.155007481
C     -0.7709723619     -2.4700704518     2.0759710519
C     2.4719935859     -1.54349889     1.1679890451
C     1.3990679597     -2.4830802864     0.9124459507
C     2.5324313616     0.8675934001     0.6653012929
C     2.6936300984     -0.5167098253     0.209600616
C     1.9213461398     1.796810551     -0.27017973
C     0.3114351561     2.4492896075     1.502277555
C     0.7181520963     2.5267836881     0.1103015296
C     -1.6021685779     1.3511779293     2.8066985082
C     -1.11785385     2.3629619867     1.8178768674
C     -2.4589745687     -0.8432098993     2.0806354836
C     -2.6246788037     0.5574241882     2.1211101881
C     -1.3969175935     -2.4607050091     0.7866844346
C     -2.4864690601     -1.4861669713     0.7970119172
C     0.8021318374     -2.5592783644     -0.3613033501
C     -0.6642990325     -2.6636487648     -0.4087204937
C     2.4258542348     -0.8481360616     -1.1699136007
C     1.5170013075     -1.943863193     -1.4754702299
C     2.1821082986     1.5453510702     -1.6342376045
C     2.5302102434     0.232424501     -2.0977739509
C     1.3656010246     2.1502903752     -2.6781640985
C     -0.2953574227     2.7313122764     -0.9415727119
C     0.013828828     2.4861497709     -2.2961728387
C     -2.0277495611     2.3859665222     0.785362157
C     -2.9660897428     1.2523325316     0.9359000517
C     -1.6615695117     2.4981505229     -0.5816160712
C     -2.8511426065     -0.78539905     -0.4056750422
C     -3.0689842593     0.6465844501     -0.3129222292
C     -2.4152976847     1.5174130338     -1.3119865679
C     -1.3068473339     -2.2737536088     -1.6218848406
C     -2.3385583395     -1.2612325784     -1.6268921245
C     0.8665265312     -1.9236571736     -2.7649106017
C     -0.5443515555     -2.0830894218     -2.7831729657
C     2.0182225411     0.1260487033     -3.4555880782
C     1.37394992     1.3836970906     -3.8411445545
C     1.1811340625     -0.9330337189     -3.7556620692
C     -0.8679939028     1.729981838     -3.1822793522
C     -1.9851008652     1.034143484     -2.5752349222
C     -2.1178030562     -0.3927018286     -2.79713595
C     -1.1544192679     -1.0312612879     -3.6173543195
C     -0.0138521983     1.0728386976     -4.14980657
C     -0.1221420359     -0.3283524558     -4.2405370936


