54

 C     1.3676414859     -0.1651682181     3.5869029163
C     2.5258682169     -0.3874983093     2.8523921336
C     2.4894337101     -1.7511785882     2.3188355874
C     0.5229877466     -1.3672090072     3.4600842815
C     1.2416758367     -2.3453287454     2.7018739956
C     -0.7637643008     -0.9548480547     3.075478248
C     0.5629861656     0.9919867004     3.350420535
C     -0.8018409769     0.5164252882     3.1334675391
C     1.0591324864     2.0037147787     2.5187249082
C     2.8975524487     0.5127511069     1.7938298508
C     2.2368057401     1.7354202011     1.6986987811
C     2.8595363845     -1.6898763141     0.9515577248
C     3.0934005262     -0.2905370344     0.5812692968
C     2.231444485     -2.5596050118     0.032319974
C     0.5172958765     -3.0824783604     1.7314323992
C     1.1451791537     -3.3619882857     0.4901340265
C     -1.5206140653     -1.658488823     2.0462604215
C     -0.8915257194     -2.7935163054     1.4631126082
C     -2.5042161276     -0.900292777     1.2505030331
C     -1.6517178885     1.2150096224     2.3023422151
C     -2.5787027355     0.5185829591     1.4129404704
C     0.1472376847     2.7780214016     1.700643784
C     -1.2116702568     2.4366143729     1.649170299
C     2.0255656709     2.3311751197     0.3974986512
C     0.8156544217     3.1212699315     0.4660797419
C     2.7409371377     0.2002299891     -0.6916051864
C     2.3589714191     1.6269754834     -0.8033197812
C     1.8834787741     -2.0814610982     -1.2807088009
C     2.1723386746     -0.7639070869     -1.6747481452
C     0.1467417174     -3.420397796     -0.5516722829
C     -1.1359553627     -3.1259453742     0.0556258482
C     0.5806140831     -2.6921714599     -1.6572339376
C     -2.8684283845     -1.402115062     -0.0512792014
C     -2.0740630524     -2.4503416198     -0.6787665722
C     -3.2477675004     -0.5236696981     -1.0843290553
C     -2.8421641592     1.3997215175     0.3043996551
C     -1.9577034861     2.5550093833     0.4100120672
C     -3.1611356602     0.8792597533     -0.9638497874
C     0.0724014566     3.3712338445     -0.6988432087
C     -1.3679095269     3.084039767     -0.7343764667
C     1.7066157784     2.0709060331     -1.9965110236
C     0.641280746     3.0046721752     -1.9352315334
C     1.3951922288     -0.2516297452     -2.7817998174
C     1.3291552413     1.1079971259     -3.0190637965
C     -0.3772754645     -2.0002454847     -2.4826392174
C     -1.7640634485     -2.0275113851     -2.0628685356
C     -2.5737868688     -0.9151942045     -2.3302470169
C     0.0855995476     -0.8616098748     -3.1726439877
C     -2.5166670672     1.4110645188     -2.1719084665
C     -1.6762945628     2.5197502431     -2.0548539692
C     -0.4482843303     2.5327581725     -2.814183892
C     -0.016122461     1.4281751252     -3.516847744
C     -2.1046760624     0.2509337163     -2.9911096504
C     -0.7963753361     0.2205153935     -3.5353699363


