54

 C     1.4102924848     0.0133130495     4.1385840415
C     0.6057001398     -1.1633850228     4.0412431033
C     1.2533482257     -2.1387030583     3.2101577939
C     2.4737903284     -0.1609977318     3.2027518367
C     2.4043549839     -1.4823236225     2.6417230858
C     2.4861775318     0.9146022147     2.2648624657
C     0.5965918945     1.0742123268     3.5736614771
C     1.2739783601     1.7089974075     2.4991583419
C     -0.7527748826     -0.7987770545     3.7189320033
C     -0.7347841046     0.6351856355     3.3185967933
C     -1.5132810844     -1.6741344904     2.9586058714
C     0.5294550955     -2.7497510017     2.1332174572
C     -0.8622917357     -2.6924776045     2.1190939548
C     2.3974601209     -1.6732518346     1.2256438316
C     1.2654452516     -2.5023470136     0.8766107141
C     2.8783155558     0.707701703     0.9276265403
C     2.7657353685     -0.6256681387     0.3336229205
C     2.5965272828     1.8095614294     0.0817383298
C     0.5472219113     2.2747781107     1.3943049687
C     1.3496099222     2.5819342617     0.281073768
C     -1.4862817615     1.1100334106     2.1732496863
C     -0.8632776284     1.9934702416     1.1835205146
C     -2.5489492881     -1.1171547453     2.1620957466
C     -2.5361827477     0.2478334003     1.7325091946
C     -1.5546197687     -2.6953026177     0.8463119527
C     -2.741530885     -1.9145553334     0.9884689046
C     0.6230007173     -2.4001619597     -0.380367511
C     -0.8290241059     -2.6389328662     -0.4087987658
C     2.3707633424     -0.736342987     -1.0634923175
C     1.255874813     -1.6026371438     -1.4432651377
C     2.7852389778     1.6909598429     -1.271819051
C     2.6699014048     0.3966309251     -1.9005694416
C     0.8104148689     2.9320597071     -0.9871609061
C     1.830060673     2.5723321105     -1.9595959343
C     -1.4049944989     2.1232656142     -0.1866501332
C     -0.5789755107     2.6927217404     -1.2616421569
C     -2.992335474     0.2872182537     0.3641319087
C     -3.2038341202     -1.0983864364     -0.0593312563
C     -2.5418250278     1.268798237     -0.5650436525
C     -1.5486064692     -2.1808081626     -1.5339125856
C     -2.8231603357     -1.4416579382     -1.3483590644
C     0.5045047129     -1.3164589342     -2.6724016409
C     -0.8934851188     -1.6410552619     -2.6906125289
C     1.9975934095     0.6004939087     -3.1357550443
C     1.5203746751     2.0251144552     -3.1765943784
C     0.9204775562     -0.2009188174     -3.5313586881
C     -0.9012283817     2.3972417172     -2.6711704335
C     0.194758562     2.0330156008     -3.6082342076
C     -0.0991061412     0.7192087482     -4.0916969452
C     -2.7495961545     0.9368608521     -1.9603232062
C     -2.8809850088     -0.4524472166     -2.3236825209
C     -1.8386278927     -0.705845096     -3.2974968762
C     -1.9824554152     1.5680905721     -2.9877294355
C     -1.4547546386     0.488846623     -3.8744334176


