54

 C     1.1477121267     -0.04347926     3.9397425205
C     2.307866234     -0.2108489624     3.2091017185
C     2.2551844314     -1.5118274487     2.5119903531
C     0.3234169372     -1.2488840215     3.6994231771
C     0.9679697422     -2.0858943294     2.6960857634
C     -0.9616685623     -0.8429894896     3.4689531586
C     0.305915785     1.1267735883     3.7120060833
C     -1.0379626605     0.6376506525     3.5121880153
C     0.7446969139     2.1289158798     2.8530825868
C     2.7789012829     0.7786135665     2.2781954832
C     2.0682902985     2.000547505     2.2049121842
C     2.7999996475     -1.3300866442     1.2299541473
C     3.1285812887     0.0961943065     1.0372906694
C     2.2322631411     -2.0435959302     0.1803555498
C     0.2230109944     -2.561979907     1.5484043253
C     0.9593341143     -2.69757316     0.3435411667
C     -1.7439436019     -1.3180578576     2.3594348724
C     -1.209194147     -2.2070481872     1.3874882926
C     -1.8623974371     1.0561011034     2.4737797436
C     -2.4906475388     -0.158639444     1.9229066667
C     -0.1790688926     2.6854063909     1.8405459364
C     -1.4523323781     2.1028215146     1.5498564931
C     1.9792993238     2.6221728956     0.9446848262
C     0.6008046758     3.1112056164     0.7448419947
C     2.9375425477     0.6833916369     -0.240676083
C     2.4046541207     2.0290852167     -0.2488934619
C     2.3040146852     -1.5416793613     -1.1714278521
C     2.6286672102     -0.1797868471     -1.4029073404
C     0.3325459948     -2.7608859402     -0.972985668
C     1.260796917     -2.2002178755     -1.9248489291
C     -1.8395231568     -2.2155943568     0.051869023
C     -1.0694535623     -2.6139561445     -1.1511046108
C     -3.0330539333     -0.1399173003     0.6882835039
C     -2.9096796766     -1.2982649414     -0.1633202249
C     -1.9251117677     2.0574407831     0.1588491515
C     -2.9374012692     1.0712487515     -0.1627930832
C     0.2283924715     2.9449895818     -0.5894867276
C     1.4237736572     2.414794762     -1.2710766479
C     -1.0725446971     2.4674216374     -0.9511273366
C     2.0078762799     0.4245827587     -2.5674120216
C     1.2857902286     1.699903761     -2.410002705
C     0.80793584     -1.6552014704     -3.1373828954
C     1.2538857306     -0.325331659     -3.4634584673
C     -1.5132885462     -2.1936929016     -2.4795346637
C     -0.5724033992     -1.7636495866     -3.4462441325
C     -3.2467837503     -0.8227838448     -1.4721285927
C     -3.1697443318     0.6630651156     -1.4584855949
C     -2.6475185575     -1.2860439518     -2.6014845394
C     -1.2319750952     1.8990906579     -2.3174405224
C     -0.0233098646     1.5984095434     -3.0687158512
C     0.057375686     0.4494345734     -3.8854138145
C     -1.0215335438     -0.4418441291     -3.9865838123
C     -2.3668555856     1.0635713972     -2.5876118652
C     -2.2391023714     -0.1130782441     -3.4152199328


