54

 C     1.3820451339     -0.2488200546     4.5438473462
C     0.5979913347     -1.3444913378     4.2747311433
C     1.2524843257     -2.2002898556     3.261441503
C     2.5927622367     -0.3317458809     3.7182866329
C     2.5034732028     -1.5642057165     2.9124020778
C     2.6795266131     0.8846284338     3.0474995944
C     0.6217359288     0.9705455465     4.189947778
C     1.4457274299     1.6891917903     3.3357010378
C     -0.6810786169     -0.9164031337     3.7552504409
C     -0.6699395192     0.5522855272     3.6654479176
C     0.2965680263     -2.4608541295     2.2614995112
C     -0.923612618     -1.6752128419     2.5923887716
C     0.6551633801     -2.528031143     0.8770698622
C     2.8200576275     -1.4909913751     1.5519919574
C     1.9882227915     -2.1509923403     0.5685425458
C     2.9190183678     0.9847713451     1.6427441367
C     3.1683424451     -0.2010119142     0.9260400241
C     0.9920709006     2.2244308949     2.1000313517
C     1.9773158857     1.9530372223     1.0599867589
C     -1.1741345665     1.1260616486     2.4878530497
C     -0.3687975044     2.1028997308     1.7245122342
C     -1.6969004985     -1.1396052766     1.5478279819
C     -2.0057801261     0.268741857     1.6347474871
C     -0.3849970543     -2.3470799399     -0.1535726168
C     -1.6397026057     -1.7309419557     0.213753632
C     0.004955582     -2.2772774155     -1.5517806692
C     2.2019870334     -1.5219561102     -0.7178681954
C     2.7973239814     -0.2381480306     -0.444388924
C     1.3487229839     -1.7068888117     -1.7979277777
C     1.6200384608     1.9284004836     -0.2942935512
C     2.24379902     0.9002308913     -1.1241735156
C     -0.7049550601     2.390281658     0.3480685118
C     0.2883017775     2.3904280759     -0.7064188491
C     -2.5914895138     0.8512423825     0.5224392906
C     -2.0537806752     2.1018230032     -0.0345047706
C     -2.5381835704     -1.216309214     -0.8056520211
C     -3.141680895     0.0793335135     -0.5511334093
C     -0.9857344507     -2.0617403976     -2.5327311764
C     -2.304981935     -1.5760147449     -2.1714692957
C     -0.6475990385     -1.439066749     -3.826183891
C     1.458999674     -0.7022941267     -2.8223891504
C     1.7137558829     0.6504767082     -2.3847881779
C     0.5169781546     -0.6279967152     -3.8531464729
C     -0.1264443227     2.2898762567     -2.1149756777
C     0.6976821212     1.5052945704     -3.0107954163
C     0.1414411686     0.7756620629     -4.0965988976
C     -2.4648402899     2.1706722227     -1.3474968989
C     -3.3184713171     0.9951547371     -1.6388296213
C     -1.5502045763     2.3212679582     -2.4436315783
C     -2.7455907619     -0.708668975     -3.2612616949
C     -1.7359217097     -0.6535870289     -4.2604984278
C     -1.2606196357     0.7603813202     -4.3238918658
C     -3.1197142342     0.633569042     -2.9495002244
C     -2.0913163745     1.5599063319     -3.5441298111


