54

 C     1.256550244     0.0012021586     4.2845833346
C     0.5017183879     -1.1355421851     3.8107950191
C     1.3256899752     -1.9868688294     3.0566499498
C     2.5106927749     -0.0278700679     3.6125927844
C     2.6073708929     -1.272111727     2.8822816535
C     2.6555739975     1.2076259752     2.8792777575
C     0.5406078402     1.1620431518     3.779900521
C     1.3938405947     1.9826126248     3.0358975816
C     -0.7342229274     -0.6939430884     3.1990003341
C     -0.7025054453     0.7529483866     3.1655075742
C     -1.2902126369     -1.3843212676     2.0924274804
C     0.8921589219     -2.4626850766     1.7894232252
C     -0.452092189     -2.302474615     1.3450770033
C     2.8954095893     -1.2785464408     1.5161903334
C     1.9164970784     -2.1589142742     0.828116158
C     2.9826081374     1.2165692738     1.5286089996
C     3.2499939064     -0.038095402     0.8305336931
C     0.9991136346     2.4637408795     1.7595408077
C     2.0582485944     2.1524228634     0.8345225408
C     -1.2149709987     1.4287507927     2.0198835625
C     -0.3407979467     2.3257088756     1.2751120401
C     -2.3481608648     -0.6928216254     1.3858225131
C     -2.2874525476     0.7578763287     1.3258039576
C     -2.9384050444     -1.3955282507     0.3118993791
C     -0.7373236586     -2.492409113     -0.0764520555
C     -2.0735201919     -2.2838871334     -0.4586668289
C     1.6545470042     -2.0733318046     -0.5552531408
C     0.3297276829     -2.3607356348     -1.0786200543
C     3.0982411791     -0.0196609405     -0.5435652539
C     2.5176881035     -1.1625963695     -1.2874275518
C     1.8721612469     2.1306639078     -0.5547576228
C     2.6926801111     1.1767366872     -1.26733947
C     -0.5764986037     2.5034101961     -0.1534577087
C     0.5462483959     2.4815044191     -1.1018452211
C     -2.7970502565     1.3865767991     0.1545373704
C     -1.8736780887     2.1976845395     -0.6321646716
C     -3.7641969767     -0.7174394782     -0.6405544623
C     -3.6531946217     0.6815835133     -0.7258351034
C     -2.4405727692     -2.114596858     -1.8543515638
C     -3.572084827     -1.2860537555     -1.9728221172
C     -0.0293826213     -1.9174313529     -2.4345967173
C     -1.4058237737     -1.7493304946     -2.7874307973
C     2.149675694     -0.7216777854     -2.5401611851
C     2.3031249679     0.7681691777     -2.5500168284
C     0.8977872561     -1.054143214     -3.1301202862
C     0.2699030571     2.1480017109     -2.4655927676
C     1.1841654689     1.2814191725     -3.1594817963
C     0.390266032     0.1670218566     -3.7035865978
C     -2.1403940595     1.9126913733     -2.0364310478
C     -3.231000173     0.9780798398     -2.1092524426
C     -3.1752287461     -0.215007946     -2.8569836923
C     -1.8898618295     -0.5355311653     -3.4430534357
C     -1.0590904216     1.7654878597     -2.8999804178
C     -0.96456857     0.503023552     -3.6841847161


