54

 C     1.4801406816     0.0062007463     3.9711059791
C     0.6647823046     -1.1827380797     3.7823815327
C     1.3431671205     -2.0650397472     2.9363255987
C     2.5717063019     -0.0943539111     3.0119908024
C     2.5539710236     -1.3641277543     2.4235031736
C     2.5643843126     1.0325570842     2.1171001906
C     0.6908943411     1.056741491     3.4821801641
C     1.3691940073     1.7835043422     2.4260080021
C     -0.6882151999     -0.813159275     3.3988184009
C     -0.6632880185     0.6225767071     3.2007168496
C     -1.4483464457     -1.6256001682     2.5186579364
C     0.6859585409     -2.6689934655     1.8393396579
C     -0.7434662454     -2.6499970377     1.7283481342
C     2.5760112024     -1.5294466015     1.0147255639
C     1.5048295939     -2.4455182528     0.655460098
C     2.9167402169     0.876761368     0.7453873698
C     2.8877200596     -0.4470660125     0.1281371064
C     2.5447094406     1.98722425     -0.0671375791
C     0.6254642173     2.4713209937     1.4219772026
C     1.3620071272     2.7873344455     0.2539637248
C     -1.4422184091     1.2554776171     2.1860729105
C     -0.8258589942     2.2757774688     1.3182241142
C     -2.5521424211     -0.9534557806     1.8855799594
C     -2.5198659389     0.483259195     1.6873279289
C     -3.1903462497     -1.5122985284     0.7494202654
C     -1.2486496238     -2.9726862688     0.4372442176
C     -2.5675977809     -2.5577751833     0.0286020572
C     0.9572385763     -2.4713395797     -0.643927674
C     -0.4060926352     -2.8991517849     -0.7313229563
C     2.5181060308     -0.5789172841     -1.2854858352
C     1.5401712529     -1.6063219926     -1.6752301493
C     2.6209777494     1.8775930496     -1.4523164659
C     2.6307904099     0.6056296292     -2.1019942452
C     0.7266833654     3.1628720033     -0.9878639524
C     1.5841398826     2.7319456963     -2.0647972669
C     -1.4191244385     2.511479993     0.0520320494
C     -0.651245447     2.9460151455     -1.1064668853
C     -3.1154163883     0.753230528     0.3811498177
C     -3.5707317788     -0.4719680584     -0.1831359647
C     -2.5258000031     1.7168503292     -0.4305198897
C     -2.577423371     -2.2169295748     -1.3589874406
C     -1.2562396345     -2.4484785617     -1.8297019383
C     -3.1033680121     -0.8616633199     -1.470138294
C     0.7130168101     -1.3561891983     -2.8200474807
C     -0.6968652503     -1.6252028734     -2.7927288877
C     1.8064248499     0.7857485783     -3.2743958747
C     1.0874099074     2.0890612609     -3.1705666559
C     0.8638997037     -0.1521273707     -3.5838882549
C     -1.1973486435     2.2806792404     -2.2870856748
C     -2.2905647587     1.4365845194     -1.843141753
C     -2.4670924596     0.1030213383     -2.3387415319
C     -1.4146237994     -0.3875992152     -3.2116930234
C     -0.3365483374     1.8405796017     -3.320152109
C     -0.4720587256     0.4781182784     -3.7503129954


