54

 C     1.4444193526     0.0006024784     4.1443269811
C     0.679510797     -1.2283061611     3.9377984807
C     1.4301468131     -2.0695218084     3.1242760335
C     2.5676071731     -0.0376078968     3.2162816619
C     2.6235665169     -1.3240820513     2.6730233167
C     2.4873187506     1.0984284266     2.2946802861
C     0.6130040061     1.0269473337     3.690876074
C     1.3081470733     1.8335345766     2.6949215868
C     -0.6734091106     -0.8842938884     3.4956417691
C     -0.7367360094     0.5581174928     3.378925994
C     -1.2920904368     -1.6714481173     2.5099948101
C     0.8592006753     -2.7094821949     1.9643412764
C     -0.5212876019     -2.6469194966     1.7504336517
C     2.7293648584     -1.5060704993     1.2687092093
C     1.7426568302     -2.4773818202     0.8356280575
C     2.7722342114     0.9676654171     0.9054461867
C     3.0234428934     -0.3932624698     0.4032581423
C     2.1257093294     1.9179769125     -0.0276071305
C     0.5427185655     2.4960068548     1.7609191543
C     1.0273806163     2.683962249     0.4258159978
C     -1.4921327062     1.1869344623     2.3505356827
C     -0.9080503611     2.327300864     1.6997462175
C     -2.2186684971     -1.0764690616     1.5859271376
C     -2.405087679     0.3477104388     1.5343148125
C     -1.0447789714     -2.6619822417     0.4011437179
C     -2.219889063     -1.8359668125     0.3544987966
C     1.262376062     -2.5069520081     -0.5039109746
C     -0.1910692692     -2.7232228672     -0.7430887965
C     2.8278009369     -0.6541167427     -0.9661235086
C     2.0019102181     -1.7457339323     -1.4373421
C     2.140794477     1.6417144288     -1.4439306396
C     2.6412217282     0.4207685981     -1.8946491991
C     1.0273642238     2.0116914052     -2.3478734057
C     -0.1324804363     2.9227503757     -0.4293676886
C     -1.3018579126     2.7063418506     0.3941098219
C     -0.1418228704     2.6350250671     -1.8247285253
C     -2.9344896423     0.8547164223     0.3308313682
C     -2.4568448818     2.136933012     -0.2067329256
C     -2.7358078209     -1.3242922694     -0.8645236043
C     -3.2756707493     0.0110942302     -0.8100246752
C     -0.7527717858     -2.3315556676     -1.9830287372
C     -2.0960179106     -1.7639216709     -2.0834092291
C     1.3980123749     -1.3355873845     -2.7060846242
C     1.8453236623     -0.0286607582     -3.0229138847
C     0.9137272746     0.9878790683     -3.3664203573
C     0.0732974916     -1.7240177153     -3.0212891972
C     -2.1006511107     -0.9090039875     -3.2265990012
C     -0.3770084333     0.5895566791     -3.840558664
C     -0.7382847657     -0.8097063271     -3.7333779365
C     -1.4400350513     2.3115962529     -2.4433810608
C     -2.584161852     2.1219712417     -1.5888773216
C     -3.2006693575     0.8355515662     -1.9676612536
C     -1.5185617003     1.350451346     -3.4901439742
C     -2.617920926     0.3963368101     -3.1527577697


