54

 C     1.4245738655     -0.3030088819     4.4475629778
C     0.6124008849     -1.3759579691     4.1213688083
C     1.1721358602     -2.1297215872     3.0155752294
C     2.5341643737     -0.3321122002     3.4850310312
C     2.3455670664     -1.4547582842     2.5545768753
C     2.630077822     0.927326562     2.910149452
C     0.6513258633     0.9108475904     4.1555293118
C     1.4387464779     1.739767882     3.359909835
C     -0.6722555821     -0.90284446     3.626654619
C     -0.6603959485     0.535753256     3.6114850459
C     0.1225816667     -2.4691418547     2.1039952641
C     -1.0558416785     -1.6622841837     2.4824109367
C     0.3938002907     -2.6152284104     0.7572724836
C     2.499812738     -1.2812183343     1.140083299
C     1.697681125     -2.1412816928     0.2748626373
C     2.7726401533     1.1257954402     1.5168723033
C     2.8397815144     0.0322800091     0.5867898444
C     0.927961812     2.3890444924     2.2256369448
C     1.9143627701     2.2487769083     1.1539891099
C     -1.1971048822     1.1799036123     2.4629265637
C     -0.4559663282     2.2759154364     1.8344428766
C     -1.8308255074     -1.0764095193     1.4755668559
C     -2.0492773289     0.3673332483     1.5656976004
C     -0.7547581096     -2.5793052761     -0.1677717675
C     -1.8747462066     -1.7331365206     0.1601841783
C     -0.4789599906     -2.8599500122     -1.5307975623
C     1.8219481712     -1.9874851213     -1.1140259374
C     0.8966989063     -2.6049585816     -2.0016346931
C     2.5615474705     0.3264666448     -0.8241722235
C     2.2639053192     -0.7386446504     -1.7049961975
C     1.5630733786     2.4742446119     -0.1437813909
C     2.0200659863     1.6016257749     -1.1996765594
C     -0.8004672647     2.6907904265     0.4938693971
C     0.2357840916     2.9348536946     -0.4757564942
C     -2.5791936147     0.9779264709     0.4380242845
C     -2.0634626252     2.2624473783     -0.0336213503
C     -2.6909601886     -1.1542832275     -0.9039742849
C     -3.0979318314     0.2218763682     -0.7025479445
C     -1.3638398029     -2.4559076197     -2.5345369664
C     -2.4669877609     -1.5895587574     -2.2640606025
C     0.8141722641     -1.8331914231     -3.1727369381
C     1.517208577     -0.5718902645     -2.9346214722
C     -0.5422944464     -1.8360716136     -3.6134925896
C     1.1074333856     1.740212201     -2.2989423834
C     0.0368161422     2.6332505843     -1.857720104
C     0.8500650169     0.6621600531     -3.2198664517
C     -2.3267747034     2.3068169192     -1.4051604303
C     -3.120999696     1.12469741     -1.7929865502
C     -1.27050076     2.4528707818     -2.3623245981
C     -2.4696935861     -0.6109982518     -3.3435270429
C     -1.1587434658     -0.6839705924     -4.0232436664
C     -0.4891926688     0.6147192306     -3.8476071386
C     -2.7139321314     0.7176583058     -3.0724417395
C     -1.4812268947     1.5079580068     -3.4144427159


