54

 C     1.5493563917     0.0882300881     4.0761742139
C     0.7866493728     -1.1404508114     3.802632928
C     1.6024723253     -2.0383053946     3.1569610064
C     2.7612201584     0.0256178578     3.2609312375
C     2.8989613476     -1.3093996334     2.8385180989
C     2.7090796357     1.072235346     2.2630694375
C     0.7804235268     1.1426128321     3.6257710091
C     1.5529563204     1.8821718911     2.6318313389
C     -0.4882749504     -0.7732183387     3.1833756423
C     -0.5280732982     0.6570448707     3.1636928853
C     -1.0204056501     -1.5040289251     2.0728478248
C     1.1544142628     -2.7145223661     1.9718739425
C     -0.1920257186     -2.5418221659     1.4622205087
C     3.1757377911     -1.5858824889     1.5147320126
C     2.2177583143     -2.6053102213     1.03969022
C     2.8920120593     0.7887408988     0.8492315656
C     3.2022457799     -0.5721573216     0.4992035573
C     2.1697661155     1.6011956683     -0.1611105753
C     0.8603170182     2.5768666532     1.6875965254
C     1.3070296278     2.6272432761     0.3100205376
C     -1.2446009245     1.3797122043     2.1749182968
C     -0.6016183382     2.5379296879     1.6313590569
C     -2.0376972031     -0.8283915476     1.2604806478
C     -2.1894114703     0.64979355     1.3333214421
C     -2.4810616107     -1.4841000951     0.1004892074
C     -0.4105790985     -2.8534861478     0.0617499658
C     -1.6875917498     -2.5481720753     -0.4884407562
C     1.9835278313     -2.4224188162     -0.3196150604
C     2.5883242223     -1.1534356346     -0.6822250065
C     0.7264466966     -2.7911001867     -0.865164175
C     1.8655805813     1.0718803398     -1.5104669949
C     2.0206028899     -0.3866382576     -1.725834446
C     0.944816976     1.7491516752     -2.3409173981
C     0.2133328479     3.128408438     -0.4730257907
C     -0.9944893521     3.0345097596     0.3629509401
C     0.1263293104     2.8336252972     -1.8243931508
C     -2.7740048568     1.3464524613     0.2534626298
C     -2.1922261732     2.5985344907     -0.2136248427
C     -3.1578601778     -0.7677153549     -0.9926459242
C     -3.2907988755     0.6465160435     -0.9261940599
C     -1.8796490841     -2.4725624924     -1.8990314512
C     -2.7994649621     -1.3633411355     -2.2111787827
C     0.5197147138     -2.338280384     -2.1903615121
C     1.1465131845     -1.0871393498     -2.5994796947
C     -0.7828652043     -2.34386512     -2.7446152001
C     0.1091620033     1.0343443099     -3.3294244896
C     -2.2640863808     -0.5696977539     -3.2945158478
C     0.2000173445     -0.3771840989     -3.4548134963
C     -0.9784024915     -1.1455817024     -3.5761069232
C     -1.1753630175     2.7393100125     -2.4333134733
C     -2.3117171361     2.6163146542     -1.6412713734
C     -3.0397853977     1.4166998851     -2.0815427057
C     -1.1711186855     1.6317209324     -3.3882869549
C     -2.371596842     0.8413446861     -3.2215066035


