54

 C     1.2156546909     -0.1349521185     4.1611308192
C     0.4534099974     -1.2666159379     4.2186886105
C     1.0256832293     -2.295714078     3.338938738
C     2.2897534067     -0.3474754452     3.1708668886
C     2.0560114941     -1.6514801355     2.5577539243
C     2.2610114115     0.7404850212     2.3218593631
C     0.3931197114     0.981272458     3.7270011365
C     1.1151004353     1.6244939537     2.7323512326
C     -0.8843335436     -0.9485762272     3.7336864598
C     -0.917856047     0.4630623684     3.3341964364
C     -0.0547293286     -2.8301586511     2.6240595318
C     -1.2380055618     -1.9249848191     2.8046858761
C     0.1849924582     -3.3649860009     1.356696403
C     2.0932137577     -1.7949406189     1.0892159158
C     1.2921320272     -2.8196437962     0.5442787522
C     2.5465855324     0.6376458952     0.9038852736
C     2.3875203221     -0.6451310026     0.2197903784
C     2.355092002     1.8197117605     0.2070013725
C     0.4569105178     2.3307324132     1.7177210541
C     1.3515009012     2.7883032524     0.7103774004
C     -1.4731459187     0.8257589933     2.0712789301
C     -0.8959671027     1.9816784543     1.3506015218
C     -2.039391001     -1.6034472572     1.6561321294
C     -2.1776756146     -0.1945809678     1.2567479605
C     -0.9021558882     -3.4978270912     0.5085490701
C     -2.0699041615     -2.6302335579     0.6595844497
C     0.8630880728     -2.8027210335     -0.8373677698
C     -0.4473800783     -3.4117883845     -0.8687019343
C     1.9912196587     -0.6172801525     -1.1850280637
C     1.1516646176     -1.7063734699     -1.6990436653
C     2.3186643927     1.8815266362     -1.2241945721
C     2.055138328     0.6558216137     -1.9515764876
C     0.8484089754     3.4467169261     -0.368998108
C     1.6401209194     3.1010142074     -1.5697110517
C     -1.3620039333     2.3853280343     0.0349969999
C     -0.5548180994     3.3455203649     -0.7077792765
C     -2.5162676308     0.1300730005     -0.1156838196
C     -2.1966066896     1.4476819972     -0.7185872911
C     -2.4493041804     -2.2912503556     -0.6431967529
C     -1.4601609951     -2.8572653575     -1.62968914
C     -2.7120139835     -0.9759678747     -1.029059658
C     0.1702764365     -1.3957717907     -2.7599682202
C     -1.1945544127     -1.8878246     -2.5790962576
C     -2.2351360479     -0.8605443976     -2.4065541869
C     1.2935861919     0.8113127072     -3.1658894019
C     0.2700516423     -0.1928013386     -3.4733549906
C     0.8034517999     3.1651118424     -2.6542300487
C     -0.5945230936     3.4047611102     -2.1290351939
C     0.7654663821     2.0997016423     -3.5842159337
C     -2.2030960385     1.5613700761     -2.1539747551
C     -2.0783371185     0.3472906285     -2.977863598
C     -0.9322390582     0.5282088572     -3.8568364803
C     -1.4315951536     2.562995678     -2.846059111
C     -0.6276286014     1.8827565578     -3.8763808297


