54

 C     1.5127282485     -0.1818431304     4.5144265878
C     0.6618032883     -1.282090575     4.523502281
C     1.2443477014     -2.4058427831     3.7971321403
C     2.5970375484     -0.508962518     3.5312615697
C     2.3825667994     -1.8199485296     3.0623145313
C     2.6008628405     0.5064310785     2.5421621025
C     0.7700789325     0.8905469848     3.9233759395
C     1.5000264714     1.4341833713     2.8548833058
C     -0.6510090238     -0.9298975974     3.9724114626
C     -0.6061879998     0.4548493295     3.5754961109
C     0.3164554992     -2.727967082     2.81010233
C     -0.8980543119     -1.8768743683     2.9447784986
C     2.2111122329     -2.0692498206     1.6272851002
C     0.9446171594     -2.7379661104     1.4927098159
C     2.8448217322     0.2267150083     1.1469024033
C     2.5478126054     -1.1153765395     0.6335172267
C     2.6071567309     1.3063392451     0.2956061351
C     0.8596302032     2.1464160107     1.8040285058
C     1.7162445057     2.3932082433     0.7063364586
C     -1.1761640635     0.8743238731     2.3428031532
C     -0.5510267216     1.9534803505     1.5421632097
C     -1.5446596294     -1.4929936402     1.7682347947
C     -1.9170459806     -0.1006949426     1.5489044744
C     0.1728541432     -2.580985628     0.3422596298
C     -1.2358142192     -2.2470991456     0.5481928382
C     1.9371189415     -1.226832712     -0.6965841719
C     0.7755834293     -2.0661524851     -0.8682486932
C     2.4840352525     1.1536102473     -1.1429303742
C     2.1073008126     -0.1394703437     -1.6698542386
C     1.1818935048     2.9109870521     -0.463938509
C     1.8309322187     2.3087810665     -1.6432556603
C     -1.0774565043     2.2895132295     0.2366228008
C     -0.2026721231     2.9480486465     -0.7093639997
C     -2.5190571495     0.2653995757     0.2991098378
C     -2.2133361941     1.5456716371     -0.3340763215
C     -1.9845796477     -1.9624788256     -0.5469042542
C     -2.8973492346     -0.8209882382     -0.5697153518
C     -0.0640081034     -1.9830394816     -2.0738973405
C     -1.4860706119     -2.1521861355     -1.9076877497
C     1.3640643917     -0.1404139711     -2.8792362069
C     0.3616613279     -1.1713355833     -3.1761932016
C     0.9134507435     2.2617853878     -2.6841869142
C     -0.3712611828     2.7899000775     -2.1538871115
C     0.8741487483     1.0916506633     -3.4915129248
C     -2.5344665023     1.7162657474     -1.7206865845
C     -1.5504416183     2.307427606     -2.6557440255
C     -3.2433858326     -0.6190406966     -1.901963782
C     -2.4113397787     -1.514498519     -2.7686727701
C     -3.1740969487     0.6675946537     -2.4768504372
C     -0.5859738001     -0.6309888771     -4.0970943782
C     -0.3132695103     0.797982336     -4.1953974931
C     -1.5331976877     1.4888794265     -3.875212378
C     -1.9930588144     -0.7812689165     -3.8868496415
C     -2.5853628289     0.5564963678     -3.7965787705


