54

 C     1.4228290714     -0.1175765703     4.0785738999
C     0.6270134439     -1.3354602104     3.9222351792
C     1.4549912617     -2.2943591844     3.2936864126
C     2.5949496132     -0.2667503089     3.2191910124
C     2.6883196255     -1.5781069021     2.7983572289
C     2.5887222104     0.7966798208     2.2034116607
C     0.6924249866     0.9335589662     3.5410013649
C     1.4491642994     1.6136642072     2.4898268833
C     -0.609845911     -0.9909271571     3.2768669439
C     -0.6231022902     0.4732790994     3.1561045418
C     -1.1033726496     -1.7368023026     2.1420714196
C     0.9838532083     -3.0477847509     2.2311208258
C     -0.3008530563     -2.8203309907     1.6499631651
C     2.8790806414     -1.9060593323     1.4036793308
C     1.9507727632     -2.9394041048     1.1179686352
C     2.9345058881     0.534914036     0.8376440183
C     3.0799379601     -0.8678739947     0.4025990957
C     2.4488600794     1.4921320958     -0.110187951
C     0.7570383446     2.3183639653     1.4871979849
C     1.4177157285     2.4314272821     0.2243383963
C     -1.3344781359     1.1228987632     2.1545415247
C     -0.6970199771     2.2546091791     1.4472387961
C     -1.9990408057     -1.0693504996     1.1958684381
C     -2.2983151923     0.3392720987     1.3842358985
C     -2.1634375446     -1.6054042006     -0.1508544968
C     -0.1538798885     -2.9563500476     0.1965221704
C     1.2616166928     -3.0091694053     -0.103958583
C     -1.0572140394     -2.3853151697     -0.709667424
C     2.663302069     -1.1753470246     -0.9252958084
C     1.7485822367     -2.2582868089     -1.1856684371
C     2.2691492981     1.1847599493     -1.5165356357
C     2.3537022803     -0.1485351909     -1.9140579751
C     0.7226143187     2.8424919641     -0.9782544975
C     1.2635453505     2.0770728834     -2.0887406322
C     -1.3506829869     2.8139674861     0.3193514951
C     -0.6284781487     3.1354041006     -0.9339235992
C     -3.0543180814     1.03609933     0.4071211113
C     -2.6126464957     2.3508716167     -0.0567807842
C     -2.9961425945     -0.9008452     -1.0720034624
C     -3.5185253181     0.3762235355     -0.7339984963
C     -2.6436673471     -0.8186830108     -2.4638217522
C     -0.560342531     -2.0433658276     -2.059926825
C     0.8467184238     -1.8807001996     -2.2276173833
C     1.3348179676     -0.6373645929     -2.8119722581
C     -1.4008380208     -1.2676920676     -2.9315638966
C     0.4187863831     1.6595369315     -3.1061758349
C     0.4726831926     0.2387978878     -3.4843533786
C     -0.8532645567     -0.1717702963     -3.7176941525
C     -1.5051437895     2.841672451     -2.0660753417
C     -2.7815948026     2.4591938389     -1.4971190879
C     -3.4240739913     1.2893985021     -1.9261966685
C     -2.9197697774     0.5496776479     -2.9933210814
C     -0.9868263626     2.092874923     -3.1565629913
C     -1.7488230541     0.9707727894     -3.6583889979


