54

 C     1.6328796615     -0.1176727446     4.1993528505
C     0.8627204853     -1.2767502033     4.163474305
C     1.327838947     -2.1973048567     3.1639731589
C     2.5802351654     -0.2151193695     3.115391784
C     2.3316890188     -1.4896065077     2.4128937845
C     2.4083703487     0.9250255208     2.3225027275
C     0.7503694019     1.0167734657     3.9461418099
C     1.2731755942     1.7433467156     2.8799222012
C     -0.5368572556     -0.9513584213     3.8913900392
C     -0.6271585797     0.4967322916     3.7868744782
C     0.1543180412     -2.6149396067     2.4505756248
C     -1.0090011522     -1.7799805462     2.8557027617
C     0.2737054304     -2.9136700851     1.1253018737
C     2.3501090809     -1.5519036571     0.9702117448
C     1.4578015874     -2.4994285182     0.3746504472
C     2.6119094202     0.9121347389     0.9092671335
C     2.6254261573     -0.3562628894     0.1716636412
C     2.1818435568     2.0816681469     0.2354857839
C     0.4146087263     2.4521827936     1.9610414524
C     0.9761408728     2.8158935268     0.7249775995
C     -1.4328922584     1.0034222138     2.7871142771
C     -0.9908023829     2.1418771874     1.9700648847
C     -1.8913120046     -1.2597307582     1.8278507125
C     -2.1823485408     0.1320753056     1.8994584508
C     -0.8428593695     -2.7688544584     0.2181428599
C     -1.9203663759     -1.8794342226     0.5026620436
C     1.1016866813     -2.4652071621     -0.9991801327
C     -0.3092421883     -2.85047153     -1.1005035783
C     2.3281410443     -0.3427939158     -1.2641752234
C     1.5957409728     -1.4660230198     -1.8826767779
C     2.1499979778     2.116028158     -1.1491517035
C     2.1984186997     0.9238312566     -1.9211719387
C     0.1810958024     3.1265471704     -0.4195739128
C     0.9749708684     2.8680791359     -1.5822450921
C     -1.7246981886     2.1432625144     0.7605570837
C     -2.4497297056     0.8684045265     0.6972087214
C     -1.2100165439     2.7164038052     -0.4416482541
C     -2.5343157092     -1.1946729179     -0.6453902749
C     -2.7741728807     0.2518824834     -0.5301083906
C     -1.0796984185     -2.4936871233     -2.1759622095
C     -2.2929934037     -1.7118313892     -1.9557813705
C     0.8658560595     -1.2789309938     -3.1108872508
C     -0.4068579275     -1.9364316335     -3.3206108125
C     1.2935931629     1.1238862637     -3.0584672299
C     0.4629913638     2.315771549     -2.7505625359
C     0.7185802342     0.044744632     -3.6958256051
C     -1.7508143192     2.2521936443     -1.6662498425
C     -2.6580586788     1.0874913766     -1.704688634
C     -0.9596370392     2.1904517041     -2.8765355305
C     -2.4260995378     -0.8793241269     -3.126134404
C     -1.3115505657     -1.112637375     -4.0321289325
C     -0.6664090604     0.1569911834     -4.207121946
C     -2.6011417686     0.5172069273     -2.9890657514
C     -1.4951804981     1.1797197648     -3.7180069112


