54

 C     1.5825682411     0.0077827812     3.7313788852
C     0.746360205     -1.1581127438     3.562595447
C     1.2974555397     -2.0140994416     2.5762046057
C     2.5111751396     0.0005745239     2.6474907862
C     2.3592604536     -1.2233277708     1.9331514041
C     2.3243913522     1.196545965     1.8745617682
C     0.7496458155     1.1363464279     3.5604279464
C     1.273375167     1.976753421     2.5244503479
C     -0.6355878542     -0.7629613442     3.4603968362
C     -0.6419224001     0.7145989498     3.4757163401
C     -1.4599617434     -1.4489483715     2.5609205731
C     0.445466841     -2.823024186     1.7681258408
C     -0.9606179732     -2.5591264989     1.7935841365
C     1.0085666242     -3.2844769447     0.5359945501
C     2.5598415361     -1.3055613369     0.5145298214
C     2.1219562472     -2.5230230386     -0.0721998723
C     2.454085321     1.1917341492     0.4403165619
C     2.6064704887     -0.0822639083     -0.2889426632
C     1.8922667678     2.2966903746     -0.2257417845
C     0.4031867122     2.7716830123     1.7401121369
C     0.9081483083     3.1588111841     0.4487974194
C     -1.4793362253     1.4007291121     2.6142038002
C     -1.0123832012     2.550620751     1.8572239774
C     -2.3777002813     -0.7080589663     1.6935474221
C     -2.4069377992     0.6747821227     1.7386184605
C     -1.7099709344     -2.6062195923     0.5331991257
C     -2.4768068238     -1.3876880258     0.4221106781
C     0.1784421824     -3.7395223132     -0.5124808515
C     -1.1771987328     -3.2158264857     -0.5918787706
C     1.9776529368     -2.6101141797     -1.4772118348
C     0.8186319082     -3.4679021593     -1.7586054681
C     2.2057940645     -0.1413939053     -1.6855182457
C     1.900691154     -1.4319538574     -2.2455081002
C     1.5909256601     2.2858171582     -1.6473018377
C     1.6199919527     1.0424925157     -2.3523641552
C     0.046830925     3.638940767     -0.5336540227
C     0.534716177     3.2344426503     -1.8535461614
C     -1.8275260757     2.651133653     0.6738718559
C     -2.601280895     1.4257824116     0.5311439092
C     -1.3651706206     3.3415004111     -0.4650264787
C     -2.5955877177     -0.6762767962     -0.8128201176
C     -2.741328315     0.7833975033     -0.7405364224
C     -1.3237496536     -2.5533027239     -1.8821901188
C     -0.0448649123     -2.7538701359     -2.5763948975
C     0.6776748388     -1.5996280222     -3.0811451639
C     -1.9797484185     -1.307365751     -1.9967581646
C     0.5446454387     0.831436773     -3.3060734458
C     -0.0426076792     -0.5085543218     -3.4114213492
C     -1.4706368845     -0.4142743538     -3.0356386196
C     -0.5698756507     2.8973116201     -2.634383297
C     -1.7593014815     2.8529585084     -1.7417875095
C     -2.3882016372     1.5900972016     -1.894085376
C     -0.5411244584     1.7214377128     -3.3789476083
C     -1.7507896195     0.9324755439     -3.0105123195


