54

 C     1.3706741796     0.0732716309     3.7810296799
C     2.5197910938     -0.1029784705     2.9961623874
C     2.461113707     -1.4593462455     2.4146061527
C     0.4961652674     -1.1217675682     3.5741814648
C     1.1965923392     -2.0465126971     2.7476805505
C     -0.8202443477     -0.7003640506     3.2651275311
C     0.5895692859     1.1973889443     3.5991569368
C     -0.8152029612     0.7385713646     3.3789056784
C     0.871454847     2.132704932     2.5672044313
C     2.8068609743     0.7899122393     1.9304079274
C     1.9674051617     1.9349213959     1.6569699224
C     2.9251294628     -1.4402776123     1.0903606617
C     3.2691041846     -0.0443979395     0.8125259994
C     2.2613842225     -2.2406728637     0.068148599
C     0.4698182761     -2.6957474351     1.7286348813
C     1.0477124544     -2.9026290971     0.4272463869
C     -1.557343288     -1.3043083588     2.1765978306
C     -0.9413001641     -2.4252544057     1.5483916888
C     -2.4777760019     -0.4529693609     1.381511436
C     -1.4498911432     1.5545770071     2.4720343132
C     -0.4300127745     2.5372224444     2.0353255084
C     -2.4052006182     1.0091437666     1.5139161079
C     -0.5439529493     3.1058139244     0.802354025
C     1.7775562879     2.3583043656     0.2337225705
C     0.5697303093     3.0289138885     -0.1443904126
C     3.1778758936     0.4211095316     -0.4754622588
C     2.454105737     1.6527837678     -0.7999604186
C     2.373963595     -1.7925879221     -1.2906322103
C     2.9450344329     -0.51796465     -1.528971943
C     1.3015567513     -1.9617704917     -2.266411911
C     -0.0448979142     -3.0125130096     -0.5334353647
C     -1.2574793383     -2.7689383442     0.1883565083
C     0.0780376776     -2.5918227062     -1.9037886347
C     -2.9592993735     -0.9688308611     0.1506974168
C     -2.3587992871     -2.1729937273     -0.4440266298
C     -3.3402366748     -0.1048660269     -0.9527113913
C     -2.676609958     1.829114707     0.3897713846
C     -1.7774723965     2.9259505296     0.0887711682
C     -3.1064720707     1.2703478616     -0.875598387
C     -0.035263412     2.8465782414     -1.437338104
C     -1.4726353304     2.8738607222     -1.2801791865
C     -2.3276393735     1.9256234937     -1.9381903799
C     1.8446245034     1.4373986914     -2.0971263209
C     2.2250439942     0.1424414738     -2.5803471425
C     1.267213951     -0.7512180856     -3.0861973307
C     0.5398254893     1.9653428226     -2.4153216241
C     -1.7951415141     1.1713930249     -2.98536094
C     0.0219624174     -0.233777052     -3.5330395623
C     -0.3431158876     1.1535046859     -3.1961813062
C     -1.1450058855     -2.1770441157     -2.5838560832
C     -2.3617652173     -2.0699083602     -1.8460704066
C     -3.0044417671     -0.7931445079     -2.1786440694
C     -1.1196360718     -1.0428520821     -3.4756914231
C     -2.262470776     -0.1787374298     -3.170865668


