54

 C     1.3258808905     0.0603274313     3.6966367902
C     2.4372349111     -0.1716790978     2.8448270003
C     2.3706670578     -1.524154889     2.3626711072
C     0.471676134     -1.1371447366     3.70217624
C     1.133953003     -2.0973567552     2.8726963964
C     -0.8251856125     -0.6868223048     3.3126882504
C     0.5490209701     1.2100131239     3.5247585173
C     -0.8250949971     0.7572860547     3.3590532783
C     0.8480096101     2.1567490387     2.4961501113
C     2.7580367027     0.723643115     1.7795439983
C     2.0175761235     1.9583732709     1.6425511662
C     2.6152243158     -1.4934679562     0.9706058902
C     2.9496678256     -0.105692271     0.6092339997
C     1.8878396788     -2.3208661865     0.063135749
C     0.3946009299     -2.8908289028     2.0234281396
C     0.8878356304     -3.1876728296     0.6878405995
C     -1.5958940015     -1.3706275484     2.2821841793
C     -1.0493240835     -2.6354214949     1.8610260986
C     -2.3912972371     -0.5972793675     1.3223044309
C     -1.3961611619     1.4822530229     2.3235066025
C     -0.3933888405     2.4625377335     1.8482212254
C     -2.2767463073     0.8719236558     1.3739635298
C     -0.4587919014     3.0369961855     0.5471411179
C     1.9723870584     2.5050656332     0.3505540641
C     0.7985204784     3.2598423095     -0.1446915673
C     2.7539466116     0.380702284     -0.6937654735
C     2.5262133433     1.8083421418     -0.7792154028
C     1.678304891     -1.8520813704     -1.312165431
C     2.1540354085     -0.5108758979     -1.7125691191
C     0.5738222286     -2.406224301     -2.046541305
C     -0.2194331156     -3.6359578457     -0.0628823928
C     -1.4355633038     -3.209466813     0.6396779865
C     -0.3566204265     -3.2849778675     -1.3984052365
C     -2.7694932359     -1.2147972042     0.0356645107
C     -2.2707133626     -2.5263026997     -0.2809316079
C     -1.6841017956     -2.7424926545     -1.5863832015
C     -3.0204488472     -0.3649830964     -1.0959886779
C     -2.5227212899     1.6535921162     0.2132096819
C     -1.6097289647     2.7526743856     -0.2235404099
C     -2.9921409181     1.0394256148     -0.9451941952
C     -1.5611788645     2.7640402456     -1.6745535217
C     -2.400761667     1.6936899092     -2.11638942
C     0.8354318472     3.2718704806     -1.5378539055
C     1.9359532488     2.3754829001     -1.9408674393
C     -0.3209012681     2.9627600265     -2.3356390741
C     1.5376408903     0.1140094108     -2.8360383213
C     1.463657824     1.5472851306     -2.9318246996
C     0.0892334518     1.9542785383     -3.2884581208
C     -0.2048046944     -1.5840048352     -2.9599413216
C     -1.6321612925     -1.7393474276     -2.5771757814
C     -2.416814661     -0.6114592679     -2.4068638348
C     -1.9619528548     0.6795817969     -2.9727977285
C     0.2720394048     -0.3691470872     -3.3625288357
C     -0.6469857651     0.7883871325     -3.5222446469


