54

 C     1.4020016301     0.0595122749     4.2044992686
C     0.5923874103     -1.1563598072     4.067987647
C     1.293606008     -2.0546641359     3.2568122064
C     2.5120538429     -0.0345108395     3.2799086404
C     2.4742267181     -1.3182417408     2.7331819641
C     2.4248279111     1.0671711532     2.3242060068
C     0.6018020957     1.1132857191     3.7568269273
C     1.2544225729     1.8333794893     2.6710832491
C     -0.7647686271     -0.7965464821     3.7038159455
C     -0.7749369868     0.668433644     3.5606305983
C     -1.4266281938     -1.5469559508     2.7208091013
C     0.6794968958     -2.6848204774     2.1378273009
C     -0.7050546969     -2.5401886097     1.9415841214
C     2.5871470633     -1.5677317815     1.3339210376
C     1.5520344469     -2.5058619277     0.9657655975
C     2.7622521064     0.8781860831     0.9462169977
C     2.9081095692     -0.5012043865     0.4341852406
C     2.22752079     1.823147874     0.030751006
C     0.4704104203     2.4721493969     1.6683548468
C     1.0752529654     2.6319174549     0.3779480429
C     -1.5287431495     1.2718678797     2.5716502679
C     -0.9518432122     2.2850807019     1.6890743145
C     -2.351022728     -0.8996779066     1.7918077154
C     -2.4396700326     0.4895829454     1.7522893506
C     -1.2360121427     -2.5254166041     0.5941329393
C     -2.3457264193     -1.6093122246     0.529631603
C     1.0510785401     -2.5637867954     -0.3511438546
C     -0.4024097996     -2.7085234095     -0.5504892643
C     2.6355577909     -0.7464072639     -0.932489725
C     1.7712555129     -1.8249846982     -1.3381076158
C     2.1829961938     1.5966403499     -1.3955178333
C     2.4226486266     0.3175123756     -1.8913653603
C     0.3178091723     2.8682859084     -0.8077813368
C     1.0811474647     2.3661475066     -1.9495022476
C     -1.6794156975     2.2786576159     0.4618248715
C     -2.5937388747     1.1534388971     0.4782845652
C     -1.106457008     2.6975727401     -0.7842645959
C     -2.7232162312     -1.0015916022     -0.69118241
C     -2.9272143498     0.4626117203     -0.7169226385
C     -0.9555530558     -2.3422758077     -1.7948598352
C     -2.1965266153     -1.6071947608     -1.8768745853
C     1.204878005     -1.5223214669     -2.6363259579
C     1.6401231532     -0.188307854     -3.0175615696
C     -0.1133691594     -1.916606142     -2.9247309666
C     0.4515186087     1.9602797149     -3.1110872149
C     0.78103852     0.6643081985     -3.7264310674
C     -1.7576449559     2.2567582614     -1.9716164807
C     -2.6996205907     1.166314074     -1.9422508153
C     -0.9980289639     2.1072027208     -3.2060823188
C     -2.2020411916     -0.8940588779     -3.1115143972
C     -0.9032341166     -1.1182409636     -3.7994205544
C     -0.4666751664     0.1345807933     -4.2427262753
C     -2.5632598504     0.4507003922     -3.2087354209
C     -1.5447922289     1.1010666212     -4.0060270221


