54

 C     1.5411301763     0.0845239883     4.0753942618
C     0.6645530107     -1.103208268     4.0608505358
C     1.2686663984     -2.0636295084     3.2496732979
C     2.5953466135     -0.1267022652     3.0998049161
C     2.4874857154     -1.4461091747     2.6649018801
C     2.5055059925     0.9121269918     2.0733426725
C     0.7625719188     1.1259514408     3.5896401506
C     1.3587282879     1.7170202415     2.3816468127
C     -0.6957146391     -0.7013097446     3.7738890324
C     -0.6450434964     0.7455500542     3.557356113
C     -1.4587172014     -1.4539886417     2.855866535
C     0.5667768256     -2.6701303943     2.1577452729
C     -0.8118786396     -2.4501842199     2.0063099916
C     2.5375970671     -1.7611924451     1.2836493371
C     1.3742232545     -2.5622372727     0.9557638038
C     2.7900808758     0.632618089     0.7157001456
C     2.9460410666     -0.7781262941     0.3450864066
C     2.24589186     1.5293104265     -0.3013906476
C     0.5362510889     2.2608064453     1.3559250318
C     1.0270789898     2.288203604     -0.021657189
C     -1.443400999     1.3458933703     2.6118801722
C     -0.8843797741     2.2224812241     1.5730656806
C     -2.4588221157     -0.8013412531     2.0389026132
C     -2.5145080966     0.6003581938     1.9828828759
C     -1.4159007353     -2.4020408769     0.6845668001
C     -2.5607914016     -1.5299570475     0.7796361191
C     0.791317888     -2.5358443886     -0.3593194205
C     -0.6666832014     -2.4610267752     -0.5287566983
C     2.7207475605     -1.1401494071     -1.0010218598
C     1.6064774043     -2.0066396011     -1.3725832143
C     2.5494479316     1.202163979     -1.6633995979
C     2.8160258217     -0.1760272399     -1.9965643528
C     1.7673568764     1.7256315364     -2.7137377729
C     0.1016248619     2.6063996501     -1.1142668542
C     0.5608760136     2.403073319     -2.4752237734
C     -1.7755830129     2.2347024722     0.4700737044
C     -2.8285996372     1.2515502636     0.7426627144
C     -1.3453471672     2.5274252546     -0.8672226153
C     -3.047088698     -0.9294337988     -0.35686985
C     -3.3311243387     0.5180567282     -0.3271999414
C     -1.2177610392     -1.8805702158     -1.7683943702
C     -2.4940378615     -1.2397084119     -1.6566841141
C     1.0938727776     -1.5705685273     -2.670125317
C     1.997882349     -0.5593397089     -3.137862993
C     1.4940718697     0.6181639794     -3.6944194731
C     -0.3208639686     -1.4592251933     -2.8862996835
C     -0.3766377797     1.9396620635     -3.5052935953
C     0.1811124401     0.6890531474     -4.0954420339
C     -0.7459071533     -0.3700392251     -3.7778290831
C     -2.2288440367     2.0636516034     -1.9216420313
C     -3.1364482124     1.0147289458     -1.622897929
C     -2.809336381     -0.1204318958     -2.5080715397
C     -1.6890140794     1.7390991542     -3.2279701215
C     -1.9863093002     0.3009556186     -3.5140707954


