54

 C     1.3112147052     0.0778882155     3.8882304873
C     0.5145346365     -1.0818693187     3.5611182219
C     1.1690256964     -1.8914900551     2.5925385563
C     2.2989659403     0.1509033271     2.8809809635
C     2.2886012592     -1.0641673013     2.1051633171
C     2.3114683893     1.4292314965     2.225403337
C     0.504981427     1.2439178897     3.6971313801
C     1.2259891414     2.1811272774     2.8635668653
C     -0.8110120623     -0.6277845895     3.267203176
C     -0.8022817839     0.8508809309     3.2812843723
C     -1.5575255839     -1.2907715955     2.3040406266
C     0.4017444974     -2.6490354902     1.6518837101
C     -1.0117386064     -2.4108350988     1.5746743839
C     1.0349156968     -2.9877243476     0.4320016136
C     2.5829949479     -1.031245935     0.7358984443
C     2.1981342196     -2.218167096     0.0164785178
C     2.4588722717     1.496785539     0.8034486655
C     2.612288116     0.2620706263     0.013195116
C     1.8901231937     2.6369833197     0.1477990054
C     0.488932822     3.0897185081     2.1346597073
C     1.0369104332     3.5334921646     0.8715112108
C     -1.5072964726     1.5986720468     2.2658059278
C     -0.9343669994     2.8561901326     1.8943674368
C     -2.3939780307     -0.5517471445     1.3789115507
C     -2.3283375096     0.8578928508     1.2759987137
C     -1.7145604424     -2.5438356881     0.314984077
C     -2.6112985616     -1.4200503977     0.2326837032
C     0.3118010508     -3.3922649462     -0.7609506816
C     -1.1046224922     -3.1081963904     -0.8633409301
C     2.2460300386     -2.2485385739     -1.3694993077
C     1.1781882882     -3.1188883615     -1.8692947009
C     2.2514300276     0.2489649159     -1.3915996753
C     2.2096260272     -1.0149130844     -2.0922002956
C     1.343586109     2.5377812054     -1.205288113
C     1.4254061287     1.3388884803     -1.9534126739
C     -0.0089011924     3.9944133617     0.0219907904
C     -1.1768296389     3.3935850392     0.5781343347
C     0.1633482785     3.3487119369     -1.2470531962
C     -2.5169628705     1.4231453201     -0.0849723283
C     -1.8696753847     2.6320572413     -0.4215041222
C     -1.0354057937     2.6807236816     -1.628708875
C     -2.9510645714     -0.8885189204     -1.0135585866
C     -2.7866006427     0.5533095241     -1.1858508548
C     -1.6148891696     -2.6513654682     -2.1557714076
C     -2.571739677     -1.5778266483     -2.1859375289
C     0.6713617472     -2.5354482187     -3.0281836691
C     1.3275024214     -1.2017956794     -3.1987037444
C     -0.6975444459     -2.4020175339     -3.2438489337
C     0.3203939768     1.0169829295     -2.8537043478
C     -0.9823267334     1.5988358764     -2.5238341081
C     -2.1124257963     0.7138594715     -2.4433624921
C     -2.0843404582     -0.5586612357     -3.1051552991
C     0.3235973393     -0.2682820427     -3.4998642764
C     -0.9162438573     -1.0115721971     -3.6854880542


