54

 C     1.4163238668     -0.2488232967     4.4536465795
C     0.6215075344     -1.353140915     4.2759851507
C     1.1655077641     -2.1014480676     3.1550460088
C     2.5270758394     -0.3143818975     3.4565787666
C     2.2955207513     -1.4313336811     2.5583014124
C     2.6487163132     0.9444408826     2.8977446043
C     0.6349127744     0.9362236074     4.1218725563
C     1.4281892918     1.7591974298     3.3385829822
C     -0.6915350953     -0.9022064055     3.7720385931
C     -0.6656938891     0.5054210282     3.5525366795
C     0.1185486562     -2.5329068204     2.3194591932
C     -1.0637289071     -1.7173842004     2.6817915414
C     0.352223823     -2.7558765092     0.963963132
C     2.3197020179     -1.2621345254     1.1079387071
C     1.457609942     -2.0974649624     0.2726056301
C     2.7649412323     1.1188801761     1.5116041433
C     2.6824431332     0.0308659274     0.5470795591
C     0.9234362259     2.3806585756     2.1983820611
C     1.9820069257     2.3087724617     1.2044036182
C     -1.1738146874     1.0685264893     2.3032908953
C     -0.4339461182     2.165717231     1.6921765125
C     -1.8744075581     -1.2008543687     1.6446568478
C     -1.9537007002     0.225510479     1.3986020525
C     -0.8677588612     -2.9569995498     0.2622762491
C     -1.9757574007     -2.0913794425     0.5529677423
C     -0.862718762     -3.1325167493     -1.1106347779
C     1.2731574787     -1.8311107618     -1.1512312575
C     0.2355762443     -2.59662271     -1.8654184582
C     2.3558599349     0.3768034529     -0.8390714669
C     1.7038374788     -0.5697260353     -1.7465716809
C     1.7272983512     2.6330489235     -0.0603686283
C     2.2050559766     1.7810329159     -1.1570565539
C     -0.7003549723     2.5554607865     0.3362013037
C     0.4078680852     3.1146273361     -0.4247830053
C     -2.3096713635     0.6484708142     0.0350512066
C     -1.7793997926     1.9075367633     -0.4477162309
C     -2.6402043887     -1.755969497     -0.6785509338
C     -2.1238835672     -2.6619497311     -1.6738358281
C     -2.8328443938     -0.3599450885     -0.9596355594
C     -0.3196761005     -2.1233796906     -3.0750714906
C     -1.8189136653     -2.1691213087     -2.9363689418
C     1.075305536     -0.0827919296     -3.0209844285
C     0.0279278171     -0.8881780528     -3.6367188306
C     1.5074092405     2.2103743886     -2.272604497
C     0.416589292     3.1091193038     -1.8165099031
C     0.9568004088     1.3328603413     -3.2514687048
C     -1.8664712422     2.2035095735     -1.8716854541
C     -0.7084804719     2.7862375171     -2.5523464108
C     -0.3243701424     1.9210090564     -3.6409269394
C     -2.8531223793     -0.0181949396     -2.3678535171
C     -2.3239122444     -0.9619226065     -3.3578188283
C     -1.2367383656     -0.2602738641     -4.0529329824
C     -2.4089760873     1.2637675301     -2.768683958
C     -1.4212707599     1.089964616     -3.877934431


