54

 C     1.240757331     -0.170476104     3.5807871057
C     2.3395870993     -0.4300420621     2.8090136608
C     2.143849422     -1.7337883263     2.125263837
C     0.3698331378     -1.3720942871     3.5172658803
C     0.8785371892     -2.2526979564     2.4752619064
C     -0.9214861649     -0.9281681608     3.4407159734
C     0.4283870262     1.0009688665     3.2845000175
C     -0.909480153     0.5515502634     3.3147384893
C     0.8284782223     1.9389683602     2.2709023466
C     2.8374063263     0.5145631355     1.871696508
C     2.173532797     1.7788376706     1.6966703092
C     2.560014795     -1.5671635579     0.7952633463
C     3.1794319029     -0.2506789985     0.685372742
C     1.783171524     -2.1031260282     -0.2813161951
C     0.0130903569     -2.7449955084     1.437986018
C     0.568313842     -2.835563356     0.0687193392
C     -1.8445878662     -1.4654518019     2.5037660453
C     -1.4287106521     -2.4922038663     1.5858453008
C     -1.850940057     0.8880354674     2.3297061352
C     -2.5758650887     -0.3273965679     1.9746109718
C     -0.2321393217     2.5135858909     1.412840015
C     -1.5434627629     1.8735408986     1.3377381382
C     0.1842014914     3.2870850501     0.27188531
C     2.4834570012     2.4683975805     0.4681707864
C     1.5436804147     3.3550973381     -0.109825873
C     3.2778960489     0.3805324184     -0.5469536273
C     3.1681589087     1.7834134462     -0.6010396162
C     1.8845452542     -1.4066302624     -1.5832620785
C     2.593658198     -0.1917991189     -1.698452066
C     0.8286967605     -1.5925488129     -2.5391268496
C     -0.3496968866     -3.1285799486     -1.001241567
C     -0.1407715288     -2.5602496534     -2.3226383693
C     -2.2789031222     -2.6643128837     0.4333225177
C     -1.7455310896     -3.1617725067     -0.7797499963
C     -3.2307586515     -0.4256780399     0.7546907952
C     -3.279572602     -1.6767042371     0.110025652
C     -2.2356087615     1.7428675138     0.0360838237
C     -3.034887356     0.6143946097     -0.2460968638
C     -0.6019456647     3.2715988832     -0.9505998492
C     -1.6568358776     2.3857130459     -1.1105762247
C     1.5932183696     3.1602834465     -1.5880979436
C     2.5207560578     2.1211426842     -1.8544331536
C     2.0968122787     0.9333845259     -2.5036131782
C     0.3052723531     3.0978816911     -2.0782901706
C     0.200702381     -0.4271155528     -3.1988095472
C     -1.4647851665     1.6378123362     -2.3721435591
C     0.7683843121     0.8629255988     -3.0880801574
C     -0.1450322048     1.9564762779     -2.8414329755
C     -1.4131510749     -2.0367925316     -2.8042529052
C     -2.3835228823     -2.4033568398     -1.8948592275
C     -3.2408604676     -1.4314497598     -1.3191479149
C     -3.018168796     -0.0509388753     -1.5569091479
C     -1.2178009879     -0.6511995628     -3.1647236001
C     -2.0493256049     0.3639181778     -2.5571703143


