54

 C     1.4826721195     -0.0151134357     3.9836201815
C     0.7193454876     -1.040717753     3.4487729259
C     1.4512710932     -1.6745963701     2.3710097277
C     2.6995776234     0.1037285923     3.1767212536
C     2.6231892068     -0.8492841015     2.1008798997
C     2.8500361037     1.4674059922     2.8477395879
C     0.7321189292     1.2164582687     3.7528262251
C     1.5583232495     2.1713221304     3.1938683329
C     -0.5950594362     -0.5415441206     3.0475549917
C     -0.5491623464     0.885187754     3.0977262718
C     -1.3323665277     -1.2294695975     2.0798506109
C     0.7545000915     -2.3416070692     1.3703520954
C     -0.7146068146     -2.4046217575     1.4707425398
C     1.3099843589     -2.3333116562     0.0242795146
C     2.8501309552     -0.4645004932     0.7205428662
C     2.1715961223     -1.2198700144     -0.3413649872
C     3.1638091558     1.842028685     1.5533576888
C     3.1972367956     0.9060577146     0.4682182239
C     1.1301596158     2.9068951823     2.0422204115
C     2.2311976071     2.9075434072     1.1353463728
C     -1.0632424805     1.6368651774     2.0010133671
C     -0.2205960475     2.7326556515     1.4864882161
C     -2.2829920622     -0.4614282562     1.2982615184
C     -2.0328663862     0.9581890835     1.1177553656
C     -3.0343219286     -1.1927564792     0.3160057351
C     -1.4187125337     -3.0462884466     0.4418632329
C     -2.6570522202     -2.5123366989     -0.0169341131
C     0.5748020442     -3.0239986817     -0.9886714187
C     -0.7295190822     -3.4969145227     -0.7338201602
C     0.5457615939     -2.5124662735     -2.3312506115
C     1.9159555512     -0.5943241568     -1.6400661983
C     1.0804473407     -1.2621509518     -2.6061633968
C     2.6140694738     1.5742567513     -0.6947923297
C     2.0393330523     2.8364583379     -0.2432229513
C     2.0244829504     0.8566534763     -1.7540774109
C     -0.380146019     3.0872008292     0.1290200357
C     0.7772496854     3.2116629961     -0.7424676529
C     -2.3191739268     1.5156739941     -0.206414341
C     -1.4774520948     2.5629442713     -0.6792340218
C     -3.4209395082     -0.5728385392     -0.9197413883
C     -2.9523413856     0.6988769517     -1.2324015144
C     -2.7803045103     -2.7092647751     -1.4977129146
C     -1.5850386609     -3.3058049941     -1.9358301357
C     -0.805288123     -2.6555422692     -2.9078048099
C     -3.2108887287     -1.5006212481     -2.0456054195
C     0.041298146     -0.5422681742     -3.379687539
C     -2.4044734394     0.6038192324     -2.6039146676
C     -1.1770733252     -1.3794150116     -3.4299371852
C     -2.4103255713     -0.7944194378     -3.0120928508
C     0.9998390513     1.5475360337     -2.533108521
C     0.4093665592     2.7174894548     -2.0011584624
C     -1.0273415374     2.4875337812     -2.0291817834
C     -0.034797056     0.8186698003     -3.2635696993
C     -1.3316722208     1.4243617163     -2.9058107083


