54

 C     1.3650965443     -0.0946646984     3.5952706127
C     2.5216914373     -0.3355415259     2.8642709572
C     2.4783636805     -1.7213111097     2.3656458792
C     0.5024117048     -1.2858176103     3.4634807515
C     1.2162416415     -2.2967699639     2.7363837083
C     -0.7743012704     -0.86653274     3.0782699294
C     0.5712588896     1.0696351952     3.3714753787
C     -0.8170525059     0.5966772379     3.2272223534
C     1.0269187516     2.0470005028     2.4821636175
C     2.8566018417     0.5189706235     1.7625956332
C     2.1545033646     1.7293138958     1.6146192041
C     2.9087996068     -1.7258906207     1.0218493816
C     3.0934874768     -0.3200471601     0.5969888949
C     2.3041419539     -2.6335345397     0.1318385924
C     0.497101373     -3.0208808997     1.765834279
C     1.1685628443     -3.369207984     0.5746621043
C     -1.4852896421     -1.4936743503     1.9529660216
C     -0.865581092     -2.6163518593     1.3707434154
C     -2.4288710657     -0.6874711463     1.1559289843
C     -1.7234704554     1.311647095     2.5189591984
C     -2.6832665812     0.6424859847     1.616819307
C     0.069227298     2.8116384141     1.6993678445
C     -1.3306833266     2.5856972837     1.8762458048
C     1.8381672039     2.2071032438     0.3057586532
C     0.5692976061     2.9681706674     0.3808446336
C     2.7403670842     0.1012395747     -0.7014129518
C     2.1700519843     1.4604934169     -0.8453129009
C     2.0779552131     -2.2515779917     -1.2543418378
C     2.3670466934     -0.9353856663     -1.7072389978
C     0.2152803675     -3.4083680568     -0.5200214077
C     -1.0186015688     -2.8818885324     -0.0599364301
C     0.8257657171     -2.8826021806     -1.6719938804
C     -2.6172899175     -0.9741229088     -0.2854037526
C     -1.810895233     -2.0341170983     -0.908404585
C     -3.0769996372     0.0792721452     -1.1428327529
C     -3.1161388284     1.6461507865     0.7247759346
C     -2.2023330225     2.8055731014     0.8188981696
C     -3.3254517954     1.3757992973     -0.6151201051
C     -0.3077330546     3.1043088116     -0.7497024296
C     -1.7414065391     3.0995131966     -0.5117970741
C     -2.5741609077     2.3557052599     -1.4079178972
C     1.428337828     1.7845598037     -2.0375498351
C     0.164939021     2.5695057006     -1.9796851847
C     1.6887296638     -0.511736457     -2.9066748842
C     1.348020302     0.879269244     -3.0885224128
C     0.0021320621     -2.2581370358     -2.6181011164
C     -1.3726651286     -1.8892222009     -2.2643698501
C     0.5750677844     -1.2464571249     -3.4066004532
C     -2.4833735786     0.2866715766     -2.4665970214
C     -2.0675626761     1.7103853242     -2.5456861544
C     -0.7341750987     1.9955542689     -2.946555873
C     -0.0036389966     0.9896848458     -3.6635190395
C     -1.6918686546     -0.6962063264     -3.0258614756
C     -0.4927563725     -0.2945087294     -3.7427189712


