54

 C     1.3014218771     0.0302254007     3.5829932527
C     2.4756403329     -0.1648546697     2.87307533
C     2.4637824507     -1.4812582341     2.2477235336
C     0.466644004     -1.143160365     3.3660481398
C     1.164412926     -2.0403695035     2.4497000846
C     -0.808104976     -0.7042854389     3.0284944857
C     0.5122232358     1.2100657731     3.3258568422
C     -0.8203864336     0.7833540878     3.0407779209
C     1.0823717183     2.2602164243     2.5424474882
C     2.9934987366     0.8062552507     1.9195677268
C     2.3507132822     2.0341218289     1.7997946511
C     3.0013469507     -1.3382078236     0.9477377674
C     3.3901207298     0.0609455906     0.7269480309
C     2.4137675127     -2.068934339     -0.098003616
C     0.4575031967     -2.6480541634     1.3703210437
C     1.1799903721     -2.7820101571     0.1319056178
C     -1.6308595164     -1.4420311839     2.1101067292
C     -1.0121542613     -2.4947706808     1.2978863219
C     -2.7337371989     -0.712125223     1.5738587
C     -1.656402709     1.4894861942     2.1122024722
C     -2.6514410962     0.7521434629     1.4471616188
C     0.2403833795     3.0143651758     1.7088138094
C     -1.0946173434     2.633951081     1.4236910604
C     2.1894393706     2.6309009329     0.469498444
C     0.921321073     3.2876869541     0.4433133752
C     3.2027917089     0.6215505836     -0.5356338226
C     2.5942971931     1.936115936     -0.6774944227
C     2.3840983515     -1.5256418629     -1.4414617506
C     2.7605246123     -0.1931646739     -1.6545711826
C     0.4882001024     -2.8702759608     -1.1355416811
C     1.2246435724     -2.0675160323     -2.1212829866
C     -1.6573955176     -2.8508795231     0.0722486361
C     -0.8857255251     -2.9592783983     -1.1716227955
C     -3.4056143878     -1.1818708047     0.4323493136
C     -2.8898382721     -2.2503959067     -0.2924610642
C     -3.0687422744     1.0948297259     0.0981079877
C     -3.6257364445     -0.0541852988     -0.4974621238
C     -1.2920461769     2.7865014548     -0.0016179217
C     0.0158137045     3.1260109063     -0.6027698272
C     -2.2469866784     2.0111808337     -0.6950354605
C     1.744561082     1.9163571758     -1.8580861161
C     1.9471712643     0.6398764545     -2.5230615903
C     0.4316782574     2.4948392723     -1.8274053752
C     0.5502141419     -1.3302592295     -3.0836334026
C     0.9218576039     0.0715776487     -3.2800403623
C     -1.6269082009     -2.2770152555     -2.2446268346
C     -2.8492826721     -1.8486656086     -1.7175085803
C     -3.2495730831     -0.4637295868     -1.801240429
C     -0.9133492237     -1.4214127149     -3.1527982748
C     -1.9642337427     1.6461377313     -2.0531777013
C     -0.59949658     1.8827821732     -2.6143587541
C     -0.3006381838     0.8004052118     -3.4460829039
C     -2.4685625838     0.4266884554     -2.60807054
C     -1.4185996717     -0.1342190916     -3.4075808944


