54

 C     1.6015954069     -0.2421027761     4.1135173986
C     0.7373017409     -1.4041944782     4.1846504226
C     1.1129620527     -2.2237399686     3.0989080661
C     2.488258438     -0.4111586743     2.9958332761
C     2.247832791     -1.6632016792     2.36534745
C     2.5102114923     0.7776120251     2.1317023129
C     0.7970174805     0.8383781459     3.6566012353
C     1.4243689605     1.598173842     2.5810391286
C     -0.5764550441     -0.9668121612     3.7234394521
C     -0.5733342332     0.4382226798     3.4772447445
C     -0.0444769149     -2.6817058385     2.3215381689
C     -1.1505084034     -1.834770152     2.703093137
C     0.149341946     -2.9798974756     0.9976848657
C     2.3422173813     -1.811107885     0.9427457973
C     1.4163009299     -2.6979331957     0.32018274
C     2.7910872694     0.6719364084     0.7583230705
C     2.8453635298     -0.6679196687     0.1333526171
C     2.3241427918     1.7660312836     -0.0456023431
C     0.6248986171     2.3033033333     1.6672561164
C     1.2427126289     2.5816249616     0.4059541151
C     -1.3716764101     0.9986182833     2.435894928
C     -0.8405845394     2.1337528501     1.6959426501
C     -2.0240214301     -1.3204406077     1.7288096982
C     -2.3436399403     0.1181226024     1.7722418576
C     -0.9122580932     -2.7582824459     0.0426148772
C     -2.0287754077     -1.9718896078     0.3994228494
C     1.1120197838     -2.5969208005     -1.0649197011
C     -0.3116740954     -2.6567478663     -1.2764588338
C     2.7225436807     -0.7255883525     -1.2591980678
C     1.9092922157     -1.7764143401     -1.903548775
C     2.2742617027     1.6916608356     -1.4915492758
C     2.5840209792     0.4675784548     -2.0985164463
C     0.4832503623     2.9841059902     -0.7600921125
C     1.1441635275     2.4828839741     -1.954457695
C     -1.5685638453     2.5831109386     0.561643079
C     -0.8995721107     3.0236147764     -0.6823650498
C     -3.0769349133     0.6575734792     0.7021537342
C     -2.7793646287     1.9579459724     0.2130670163
C     -2.7256136602     -1.3375772472     -0.687879231
C     -3.4186502232     -0.1530975905     -0.4671588978
C     -0.9286732813     -1.9479983346     -2.356581125
C     -2.1765610693     -1.3177721621     -2.0687857103
C     1.3637795084     -1.2872177874     -3.0850408977
C     1.8427136834     0.0885831415     -3.269197462
C     -0.0609809949     -1.3271186141     -3.3410097505
C     0.3667835974     2.0407534617     -3.0451250501
C     0.7747871033     0.8448178862     -3.7163395143
C     -0.408684001     -0.0406157218     -3.8464756021
C     -1.7040548215     2.5679461261     -1.8108499773
C     -2.8637242167     1.9196186502     -1.2522622517
C     -3.289634374     0.6665418395     -1.6640688658
C     -2.5240610782     -0.0496177838     -2.6517152507
C     -1.0861622176     1.9929309702     -2.9255649115
C     -1.544589644     0.6564003033     -3.4054420168


