54

 C     1.5828677316     -0.0753494424     3.6905807479
C     0.7816592025     -1.2254672073     3.5346139918
C     1.3672356343     -2.0956335249     2.5359858188
C     2.6039283753     -0.1346464946     2.7148203752
C     2.5346492585     -1.3945786252     2.013727343
C     2.5933959755     1.0883149892     1.9453439114
C     0.7493890713     1.0700604118     3.3365042883
C     1.3842285473     1.8381981508     2.3179636637
C     -0.5923375746     -0.8035395436     3.3518584818
C     -0.5995562332     0.6643028113     3.1754266623
C     -1.4477678772     -1.583912876     2.6098579575
C     0.5093930525     -2.8423576104     1.6671962784
C     -0.9279044433     -2.7067642563     1.8414566553
C     0.9716946125     -3.0992836354     0.3345281167
C     2.8525685812     -1.4475605929     0.6246712295
C     2.1669534664     -2.4451165135     -0.1672354595
C     2.9706077244     1.0465064427     0.617845451
C     3.2009890563     -0.2197054213     -0.0489570319
C     2.3686945789     1.970937491     -0.3250916091
C     0.6075984452     2.5207581375     1.3466620329
C     1.2401409575     2.7662879836     0.0353577327
C     -1.4257228706     1.2900263042     2.1986961587
C     -0.8482607239     2.3831059516     1.4183812417
C     -2.4980379201     -0.9381420775     1.824638044
C     -2.5000453362     0.4698078168     1.6047979316
C     -1.7911437103     -2.8359572628     0.7239279309
C     -2.7861193674     -1.8095452337     0.7396748552
C     0.0426067654     -3.2546254464     -0.7940527005
C     -1.3221306386     -2.9984843817     -0.6193981153
C     1.9922103632     -2.2516674206     -1.5648510832
C     0.6549667008     -2.6992389997     -1.937046431
C     2.8718778177     -0.0051508563     -1.4399203852
C     2.4392843392     1.3531994955     -1.6252291999
C     2.2487548837     -1.0270990033     -2.1956874458
C     1.4821460745     1.6704137281     -2.6202500249
C     0.4233141768     3.2408407185     -1.053198382
C     0.6058603633     2.7204381528     -2.3856688233
C     -1.6091760214     2.8685537665     0.3002730691
C     -0.9700640619     3.3801218704     -0.8565950099
C     -3.0952022007     0.9009032531     0.3648087638
C     -2.7563574477     2.1412911056     -0.1607559149
C     -2.9716173015     -1.3427090271     -0.602311981
C     -2.012452771     -2.0376426282     -1.4706956676
C     -3.237170355     -0.0118719028     -0.786523363
C     0.0370248079     -1.721143436     -2.7409658834
C     1.0677398484     -0.7167067791     -3.0280967007
C     0.7049503941     0.5811351928     -3.2533855288
C     -1.330689317     -1.3147775019     -2.4925443124
C     -0.7233240451     2.3656327746     -2.9308923184
C     -1.6875647606     2.8842499495     -2.0728654263
C     -2.7196557726     2.0620015184     -1.6385955437
C     -2.7688826716     0.6862261089     -1.9829298975
C     -0.7113109008     0.9862250003     -3.2882361487
C     -1.7242365039     0.0891385959     -2.7876183353


