54

 C     1.5250706743     0.0843492202     3.8279271676
C     0.7453492931     -1.092590641     3.5764828826
C     1.3976201192     -1.8611088772     2.5412384527
C     2.5919645387     0.1121698246     2.9403588669
C     2.5807111764     -1.1108640707     2.1420403962
C     2.6111219952     1.4161423918     2.2646999511
C     0.6843050881     1.2550475073     3.556876726
C     1.3719342704     2.1223696053     2.6501827901
C     -0.5891446326     -0.6733019918     3.339180078
C     -0.6254984255     0.8166912469     3.2707750353
C     -1.3891774186     -1.396056855     2.4622318615
C     0.6108956123     -2.543004774     1.5599378713
C     -0.8215302175     -2.4103875075     1.6272355612
C     1.1569197117     -2.6796287577     0.2454008606
C     2.9761746699     -1.0575971896     0.785335439
C     2.3429707498     -1.9671156755     -0.1364171478
C     3.0681049093     1.4853308619     0.9739678492
C     3.3998073859     0.2406527965     0.2452921733
C     2.4247899195     2.3924399375     0.0069454794
C     0.6233048748     2.7673019431     1.6568654841
C     1.1822262988     2.9575030036     0.3144619816
C     -1.4075819787     1.4485666439     2.2430272312
C     -0.7818078406     2.5107283643     1.5201285479
C     -2.4535097002     -0.750539813     1.7120906872
C     -2.447051291     0.6601504633     1.556055918
C     -1.6781179947     -2.544311525     0.4558738453
C     -2.7628461697     -1.6119806462     0.594709779
C     0.2995176939     -2.8640181181     -0.9302271882
C     -1.1320989986     -2.8256838479     -0.8371995671
C     2.201055946     -1.6571433416     -1.5447043642
C     0.9683090542     -2.250685538     -2.0311796551
C     3.2000603386     0.5097705048     -1.1073167083
C     2.579551602     1.8253710752     -1.2779208284
C     2.5657322966     -0.3977714755     -2.0117424666
C     1.5384558603     1.7311848335     -2.2212301389
C     1.6256718979     0.3941851666     -2.8249968954
C     0.1117889638     2.9091079535     -0.6490904339
C     -1.1149341843     2.7398107169     0.1172102754
C     0.2396951107     2.2863612282     -1.9310654802
C     -2.9861403834     1.1755348002     0.3064695192
C     -2.2164235698     2.1748505174     -0.4572614953
C     -3.4245860833     -1.0931117199     -0.5458867052
C     -3.5930672367     0.340739241     -0.6238463025
C     -1.8751863344     -2.3531698543     -1.9982910074
C     -3.0440926035     -1.5562177594     -1.8214002178
C     0.2334091086     -1.6106000919     -3.0585161998
C     0.5142365021     -0.1919402325     -3.3569927473
C     -1.1514806135     -1.7702121997     -3.094750391
C     -0.9545172596     1.6879502505     -2.5673927174
C     -2.2137414481     1.7861171399     -1.8654894235
C     -3.201493263     0.7698073391     -1.9848551699
C     -2.9590512858     -0.3750887666     -2.7422402682
C     -0.7717593264     0.5244249187     -3.4051756697
C     -1.7759173921     -0.4805282457     -3.4678135318


