54

 C     0.9312222041     0.0000000001     4.7532661312
C     0.16499146     -1.1669812759     4.379408794
C     0.9647361306     -1.9358220817     3.4835003891
C     2.1593338828     0.0000000011     3.989561021
C     2.2495201116     -1.2270491411     3.2625103236
C     2.2495201099     1.2270491436     3.262510324
C     0.1649914584     1.1669812752     4.3794087943
C     0.9647361279     1.9358220823     3.4835003897
C     -1.1092828977     -0.7498090457     3.9037330462
C     -1.1092828988     0.7498090433     3.9037330464
C     -1.6170961754     -1.1872130542     2.6695938602
C     0.4735716988     -2.3871809992     2.2366311611
C     -0.8650007927     -2.0829667688     1.8074294173
C     2.4958072197     -1.2356376326     1.8814373598
C     1.5135277896     -2.1430346805     1.2541093981
C     2.495807218     1.2356376358     1.8814373602
C     2.7253934267     0.0000000019     1.1596960991
C     0.4735716955     2.3871809995     2.2366311618
C     1.5135277867     2.1430346826     1.2541093988
C     -1.617096177     1.1872130515     2.6695938606
C     -2.131931019     -0.0000000016     1.9863135344
C     -0.8650007956     2.0829667674     1.807429418
C     -2.4400661908     -0.0000000016     0.648178541
C     -1.1439064222     -2.0740388102     0.3905971204
C     -2.2388455002     -1.2446326923     -0.1017026515
C     1.2481078058     -2.1128056934     -0.0993718745
C     -0.1142666078     -2.3257143679     -0.5861633321
C     2.5018664475     0.0000000019     -0.2473789567
C     2.0765375242     -1.230434081     -0.9166259807
C     1.2481078029     2.1128056955     -0.0993718738
C     2.0765375225     1.2304340845     -0.9166259803
C     -1.143906425     2.0740388089     0.390597121
C     -2.2388455019     1.2446326896     -0.1017026511
C     -0.114266611     2.3257143683     -0.5861633314
C     -2.5552034672     1.2396113318     -1.4478655906
C     -2.5552034655     -1.2396113346     -1.4478655909
C     -3.0709488069     -0.0000000016     -2.0503952793
C     -0.3969356399     -2.23112622     -2.0292563845
C     -1.7383824144     -1.8819402344     -2.447445816
C     1.8678676107     -1.2128040515     -2.2829880858
C     0.6762221901     -1.8755014437     -2.9090042273
C     1.867867609     1.2128040551     -2.2829880854
C     2.0887661016     0.0000000021     -2.9986419871
C     -0.396935643     2.2311262204     -2.0292563838
C     -1.738382417     1.8819402331     -2.4474458154
C     0.6762221876     1.8755014458     -2.9090042268
C     -2.8236289828     -0.0000000012     -3.3989500144
C     -1.9933640756     -1.1814777784     -3.6981155399
C     -1.9933640772     1.1814777771     -3.6981155395
C     0.3945288925     -1.1935011982     -4.1488915344
C     1.1905903539     0.0000000016     -4.0961456656
C     0.3945288908     1.1935012004     -4.148891534
C     -0.9184331654     -0.7667354203     -4.4742715676
C     -0.9184331664     0.7667354207     -4.4742715674


