54

 C     1.5915364282     0.0833616791     3.641649107
C     0.8013338082     -1.11120669     3.5615081394
C     1.3262087481     -1.9295118288     2.5492559861
C     2.5221028677     0.0847966164     2.522982181
C     2.3974836239     -1.1506811692     1.8600686955
C     2.4092405584     1.2982286019     1.7818315858
C     0.7682695213     1.1924784936     3.4750051151
C     1.3795109755     2.0793033189     2.4926241886
C     -0.5974625151     -0.6908495229     3.4401806087
C     -0.6196052071     0.7702788075     3.321759721
C     -1.4536123931     -1.4297017751     2.6646184574
C     0.4600145658     -2.7875592969     1.7845402301
C     -0.9644703899     -2.6386657407     1.971474773
C     0.9181887448     -3.1785269647     0.5054989993
C     2.5348733853     -1.2046910734     0.4537592636
C     2.0253118581     -2.416058875     -0.1483804188
C     2.4498353361     1.3119301441     0.3566082571
C     2.6072687676     0.0284289148     -0.3353393368
C     1.8131048187     2.4674399959     -0.32581139
C     0.557238819     2.8929622003     1.789436773
C     0.9152073152     3.3083748727     0.4388976774
C     -1.4282794032     1.4196198173     2.359042686
C     -0.9073756715     2.6729857175     1.8353262681
C     -2.3861116702     -0.7658356283     1.7580001111
C     -2.3129358448     0.6308568262     1.4789350361
C     -1.8181571566     -2.8563795725     0.8740693383
C     -2.669293228     -1.6782559111     0.7220522103
C     0.0180051541     -3.5677398173     -0.5470510938
C     -1.3611132603     -3.2566555383     -0.4017205634
C     1.8993619123     -2.5294953139     -1.5218268355
C     0.6590917362     -3.2610654927     -1.7973159827
C     2.2687562813     -0.0565336114     -1.762410675
C     1.9330170089     -1.3431743047     -2.3420438661
C     1.5427192883     2.3645794386     -1.7272230483
C     1.7140640585     1.0854909224     -2.4023582215
C     0.3848863597     2.9979657185     -2.2977820152
C     -0.2903089108     3.7853112518     -0.1385901728
C     -1.3943194838     3.1775892874     0.6540530295
C     -0.575239157     3.588635753     -1.4732903444
C     -2.578911443     1.0556529056     0.101199723
C     -2.2193853357     2.4060250977     -0.2533148429
C     -1.8054595558     2.7378083461     -1.5616632566
C     -2.7006214771     -1.3110786685     -0.6348651462
C     -2.0029528922     -2.3623933664     -1.3878132274
C     -2.6344947909     0.0712558086     -0.9911733229
C     -0.010926676     -2.5649983074     -2.7828178757
C     0.8318712102     -1.466661556     -3.2509434004
C     -1.3360253882     -2.0208247751     -2.5521374006
C     0.5809892652     0.9225900564     -3.3114400695
C     -0.2884756102     1.9940274163     -3.1079531307
C     -1.5951580208     1.7485296101     -2.5510261505
C     -2.0355935907     0.3910076078     -2.2993290437
C     0.0136847526     -0.3548201936     -3.4883508315
C     -1.3368881275     -0.6341502423     -3.0004065087


