54

 C     1.4580977755     -0.1711674562     4.1303257419
C     0.6372729445     -1.2592702833     4.1408493249
C     1.160881235     -2.310808063     3.2673236876
C     2.5542176862     -0.4336248295     3.1840579682
C     2.381323915     -1.7941326192     2.6513667694
C     2.586199034     0.6385284289     2.2974991175
C     0.7050578199     1.0014149731     3.6882967626
C     1.4406756521     1.5539555744     2.6387467844
C     -0.7012220489     -0.8602521718     3.6815235126
C     -0.6575850542     0.5615555138     3.3601584275
C     0.1068834804     -2.6813850741     2.4300822581
C     -1.0534390549     -1.7389460409     2.6720096019
C     0.3469704353     -3.0943030253     1.0833376858
C     2.5594129295     -1.9831206613     1.2803417458
C     1.6229944702     -2.8036801547     0.514279309
C     2.882091361     0.4464294605     0.8934133919
C     2.9313287618     -0.8865426333     0.4011633405
C     2.4612696474     1.4577765131     -0.0048022429
C     0.7869652511     2.288327307     1.6178572339
C     1.4955530118     2.4882852472     0.4096114741
C     -1.3091561001     1.05932351     2.216452644
C     -0.673488785     2.1954075089     1.5331932623
C     -1.869783026     -1.2905686512     1.5700332993
C     -2.1041656389     0.1576322919     1.3723785569
C     -0.7852289696     -3.0821148255     0.2058631937
C     -1.9278686338     -2.1317636503     0.4576294978
C     -0.5990292857     -3.0779780373     -1.1594099816
C     1.7176270816     -2.4232726493     -0.8796696412
C     2.4416420425     -1.1721521983     -0.9337220264
C     0.6410799289     -2.6244759313     -1.7452326206
C     2.1936140097     1.2008913813     -1.3777937159
C     2.05950206     -0.1473752244     -1.8503137363
C     0.8601688552     3.0255415772     -0.740887358
C     1.3373620483     2.2660495963     -1.8922915099
C     -1.286974527     2.6996638621     0.3995825978
C     -0.5231508336     3.3146223836     -0.6789388263
C     -2.6447912783     0.6203280497     0.1195812266
C     -2.415010822     2.0154870248     -0.2312524662
C     -2.4462210616     -1.6814109528     -0.7982508166
C     -1.6799182452     -2.3357573929     -1.802771568
C     -2.8611650564     -0.3176542767     -0.9922805048
C     0.3084789072     -1.656711832     -2.7669456531
C     1.0115833046     -0.4225614397     -2.859295613
C     -1.169141694     -1.6194368753     -2.8854247037
C     0.517727823     2.0628956975     -2.9902975507
C     0.3127806532     0.6944082939     -3.4699450134
C     -1.3129881694     3.2706071403     -1.8564672752
C     -2.5423863311     2.4878648801     -1.5536645419
C     -0.7802344605     2.7472036016     -3.0436826149
C     -2.7880180599     0.1675140112     -2.3439472858
C     -1.8412865028     -0.4559630365     -3.2574221602
C     -1.0723541987     0.6048296331     -3.8495957131
C     -2.7374863704     1.5877817577     -2.6245580346
C     -1.7366679469     1.8421047766     -3.6280952417


