54

 C     1.1654316237     -0.0145083917     3.8895859103
C     2.4032922812     -0.3050229573     3.342673615
C     2.3442171364     -1.6518325297     2.6947493378
C     0.3242243885     -1.2268598068     3.6996997434
C     1.0330862477     -2.1627578404     2.8308455078
C     -0.9443531225     -0.8188242189     3.3970768091
C     0.4047420686     1.1136047546     3.4061393012
C     -0.9532269194     0.6544125548     3.2588853208
C     0.9307281223     1.9776293764     2.3894155563
C     3.0122783382     0.5939057308     2.4469382997
C     2.3041597697     1.7194468524     1.9775562893
C     2.964154237     -1.5314867387     1.4187871117
C     3.4391120596     -0.1864137605     1.2597494947
C     2.3300623336     -2.1177695167     0.3080336648
C     0.3401391635     -2.7230744912     1.6889834662
C     1.0937783775     -2.8480156129     0.4788036062
C     -1.6900014562     -1.3815807539     2.3181148823
C     -1.1121514651     -2.4343171393     1.5276006964
C     -1.7373283687     0.9575622926     2.1599022582
C     -2.3535655413     -0.292747442     1.6595503344
C     -0.003664329     2.5050369069     1.3751345128
C     -1.35209896     1.9701957834     1.215026965
C     0.5793891358     3.0764443974     0.1932557207
C     2.6394913076     1.8146992772     0.5513686824
C     3.185760405     0.5372945617     0.091800687
C     1.863848342     2.529060995     -0.2831071125
C     2.2731999938     -1.4504908604     -0.9737358476
C     2.6075169396     -0.0807246021     -1.0931063012
C     0.458789825     -2.9018109794     -0.8121719963
C     1.1452571348     -1.9962554874     -1.7118248926
C     -1.7142088759     -2.605441454     0.2680379188
C     -0.9265345997     -3.0194256711     -0.906670869
C     -2.8546149675     -0.396148943     0.3586785554
C     -2.7412968203     -1.7115334917     -0.2202489433
C     -2.0628289651     1.9951816531     -0.0704127908
C     -2.879216873     0.812489194     -0.5031884649
C     -0.188351191     3.3157135637     -0.9273852972
C     -1.5354020988     2.8585312559     -1.0829514204
C     1.6927377666     2.1285245189     -1.6833504259
C     1.8553577638     0.7522211645     -2.0505496048
C     0.5765711863     2.866738194     -2.1295705157
C     0.4697495375     -1.2824897933     -2.735580489
C     0.8454925739     0.1489136491     -2.9490805436
C     -1.5515645938     -2.5522186928     -2.0677640705
C     -2.7772943218     -1.8335118724     -1.6398596442
C     -0.8879246677     -1.7243615519     -3.0078157191
C     -3.0866455067     0.5946867196     -1.894203162
C     -2.9952866556     -0.7539072088     -2.4458345713
C     -1.8836485703     -0.7499931168     -3.436161284
C     -1.6744209588     2.5056592815     -2.4778431111
C     -0.2970519759     2.3494574473     -3.0457140342
C     -0.1492658809     1.0115936548     -3.5279057647
C     -2.4079451843     1.4298088263     -2.8611431161
C     -1.5226751599     0.5347122892     -3.669214246


