54

 C     1.4439259232     0.0141685578     3.7309073483
C     0.6350249284     -1.1228076836     3.5554319939
C     1.1556597729     -1.9399047689     2.4826335242
C     2.4216756092     -0.011666943     2.6640659443
C     2.3028410418     -1.2424716105     1.9196863415
C     2.3487259795     1.1669615728     1.9187543585
C     0.5892225116     1.1319569707     3.4530027648
C     1.1505957876     1.9094777762     2.4148571314
C     -0.7569882467     -0.7377190139     3.4906016827
C     -0.7859750511     0.7116280942     3.3226650175
C     -1.654198931     -1.5311536497     2.7659129025
C     0.2563900691     -2.6857884498     1.6381056169
C     -1.1552077164     -2.5614167031     1.8184352425
C     0.7169571034     -2.9864722893     0.3385478803
C     2.5856501137     -1.2858741369     0.5267617344
C     1.9691626684     -2.3788854708     -0.1792407307
C     2.6998257164     1.1950541895     0.5338446945
C     2.8910428439     -0.0576920324     -0.2111712417
C     2.2761873882     2.3671181208     -0.131279472
C     0.3299273185     2.5860517479     1.4851555432
C     1.0386628673     3.0604706959     0.3385712681
C     -1.6588471715     1.3152313346     2.3539422339
C     -1.1064229713     2.2848820012     1.4004255783
C     -2.7847740464     -0.9185971679     2.2171868357
C     -2.7759382603     0.4942855641     1.940253672
C     -2.027430554     -2.5588875482     0.6773774602
C     -3.0872131009     -1.6195729925     0.9638437685
C     -0.1811701247     -3.1548130302     -0.7670751626
C     -1.541864047     -2.6997651224     -0.6691531038
C     1.9149663484     -2.3895430228     -1.562025291
C     0.5836769995     -2.9030605535     -1.9476186849
C     2.6924406676     -0.025315668     -1.6651648649
C     2.1988337591     -1.214507011     -2.3248308169
C     2.2779169713     2.4462084376     -1.5423666385
C     2.3293891775     1.2145393693     -2.2941477701
C     0.3651590493     3.4896124959     -0.8069443165
C     1.1866076088     3.2687138804     -1.9779433721
C     -1.6981649513     2.3934482174     0.0646499513
C     -0.9492051893     2.9317974683     -1.0176357843
C     -3.3196243578     0.6365422182     0.6259737465
C     -3.4736371998     -0.7035840353     0.0217754638
C     -2.7148485309     1.4482764313     -0.3176779858
C     -2.0276576175     -1.7549664238     -1.7095436389
C     -2.9035743208     -0.6949206464     -1.2885706912
C     -2.5723453915     0.6709639847     -1.5749622772
C     0.1113402027     -2.0942905344     -2.9469382297
C     1.1498491683     -1.1217752425     -3.3066859923
C     -1.1505855098     -1.407248919     -2.7951782945
C     1.1890640617     1.2769451991     -3.2026702828
C     0.4331388992     2.4558665669     -2.8436175236
C     -0.8964073408     2.263448845     -2.3098706846
C     -1.591583679     1.0194780795     -2.5278669158
C     0.506871441     0.0992981445     -3.5304813565
C     -0.9370676679     -0.0497253541     -3.2127085665


