54

 C     1.2857736571     0.0465077581     5.0074002412
C     0.5004981222     -1.1046039793     4.8283935546
C     1.2047005743     -2.1170108382     4.1139284427
C     2.4783492228     -0.1941851336     4.1508000237
C     2.4529329748     -1.5337043894     3.6113118681
C     2.630759188     0.8949872771     3.2662082254
C     0.5633767187     1.0949926061     4.311801533
C     1.4138351593     1.7613692203     3.4261283381
C     -0.719196424     -0.8135092802     4.061845288
C     -0.6985451492     0.5564898833     3.7257237922
C     0.4169523967     -2.5707296417     3.0233504404
C     -0.8478036736     -1.8060744662     2.9954195496
C     2.428941123     -1.7010769204     2.1978349363
C     1.2069147936     -2.4750503522     1.8509756411
C     2.7782274862     0.7062261847     1.8760052779
C     2.7238291624     -0.6271128741     1.2834080114
C     0.9787607122     2.1541733681     2.1452239279
C     1.966531861     1.7215448031     1.1917229178
C     -1.1429912881     0.9725412126     2.4243343471
C     -0.3806281636     1.9669892493     1.6903146373
C     -1.3759774719     -1.4264235959     1.777514334
C     -1.7759076473     -0.0261009896     1.572587667
C     0.591226888     -2.3288927472     0.5967530022
C     -0.8228269594     -2.0367647672     0.5401076141
C     2.2768124258     -0.7214628015     -0.082069289
C     1.3435553877     -1.7596458844     -0.4956677293
C     1.6928975749     1.6620626229     -0.167323843
C     2.1535885532     0.4861015067     -0.8843641999
C     -0.6276383581     2.1594604887     0.2999187904
C     0.4583171881     2.2489618835     -0.6657569806
C     -2.2175709813     0.3387761931     0.2911865843
C     -1.8497440749     1.6260446792     -0.2526578438
C     -1.426704732     -1.7624773238     -0.6969498106
C     -2.458581677     -0.7150906714     -0.7290904695
C     0.7494711441     -1.7610058279     -1.7911630785
C     -0.6782412166     -1.9896624344     -1.9263843986
C     1.7865905905     0.3744797714     -2.2178860773
C     1.3221408192     -0.869175982     -2.7743260537
C     0.1935651285     2.2564047156     -2.0810695101
C     1.0579380884     1.4361809202     -2.9248701251
C     -2.1897422481     1.9261586536     -1.5822551722
C     -1.16256278     2.40831924     -2.5440794515
C     -3.0110550745     -0.3490161397     -1.9403541551
C     -3.0785694826     1.0842806028     -2.2956325915
C     -1.3299959529     -1.6893839483     -3.1710899194
C     -2.5752246923     -1.0263554488     -3.1610998807
C     0.6930341128     -0.5847193717     -4.00217531
C     0.5965121052     0.9073732464     -4.1485919063
C     -0.5691739316     -1.0982281673     -4.3102180218
C     -1.5745450379     2.0242716078     -3.8514763006
C     -2.7947428307     1.2290193202     -3.6791853007
C     -2.5724809949     -0.0525480797     -4.2618747909
C     -0.6970721545     1.1890038911     -4.6378209481
C     -1.3685101919     -0.0927088598     -4.9847658378


