54

 C     1.4089973132     -0.1482979577     4.0780740701
C     0.576326204     -1.2944960736     4.0782587024
C     0.9853918668     -2.1219166087     2.9726272371
C     2.3223895282     -0.2815395385     2.9725073069
C     2.0343105148     -1.4780433588     2.2106835328
C     2.4692415748     0.9360286781     2.2477448848
C     0.61516635     0.9582632543     3.6049651683
C     1.3240127257     1.7689815704     2.6736158491
C     -0.7215144798     -0.8814477328     3.6051625656
C     -0.7104433468     0.5160757443     3.2296175394
C     -0.1271230819     -2.6375835968     2.2477504666
C     -1.2733810607     -1.8058694074     2.6738492581
C     0.0115090129     -2.9336377914     0.8931735806
C     2.0290491979     -1.4741933234     0.7698753174
C     1.0800851357     -2.3459274353     0.0797206542
C     2.7937443084     0.8956566533     0.8930839462
C     2.5649458463     -0.302130706     0.0796800323
C     2.6654044418     2.1846001782     0.2808358461
C     0.6181606994     2.475095707     1.700250334
C     1.4950314144     3.0347778242     0.7151986519
C     -1.3493439415     0.9802890879     2.0241328914
C     -0.7425402337     2.1007868433     1.308241947
C     -2.1628742225     -1.3527580723     1.700288757
C     -2.2274857358     0.0569766341     1.3082695061
C     -1.2539469212     -3.2100899881     0.2808480488
C     -2.424388534     -2.359695379     0.7153904242
C     -1.3685878511     -3.4824138684     -1.0543001631
C     0.7967129769     -2.1659703191     -1.33375468
C     -0.3571193043     -2.8395497588     -1.9217227759
C     2.3062002335     -0.0883233572     -1.3337795382
C     1.3139994089     -0.9546197242     -1.9904960509
C     2.8887193137     2.3775520999     -1.0544688354
C     2.5902528744     1.2172767534     -1.9217796487
C     1.0231574679     3.7329500976     -0.3617585795
C     2.0057209279     3.5020784638     -1.4485974962
C     -1.1346661117     2.411703819     -0.056581462
C     -0.3159398999     3.3286862986     -0.8423680467
C     -2.6443165775     0.333794218     -0.0566093769
C     -1.9841679546     1.441541932     -0.7662498337
C     -3.2338760559     -2.1266149802     -0.3617025869
C     -2.7107537977     -2.9899358126     -1.448537591
C     -3.2634632339     -0.728146162     -0.8424180099
C     -1.1317044486     -2.1747751822     -2.9261769486
C     -2.5613803314     -2.2235141616     -2.5469495467
C     -2.9739438156     -0.8356671343     -2.2414666827
C     0.4603225175     -0.3343775083     -2.9814142032
C     -1.7141625632     1.2454584386     -2.1746328259
C     -0.8419532844     -0.8429101913     -3.2046427871
C     -1.9961184823     -0.0045116824     -2.7770777727
C     1.718600588     1.7485862178     -2.9263093672
C     1.3231025765     3.1234331252     -2.5471484293
C     -0.1243085506     3.0868964669     -2.2414582279
C     0.5414301589     1.0615294405     -3.2044554999
C     -0.6124813778     1.899937276     -2.7769895523


