54

 C     1.1277677963     0.0128821981     4.4799810307
C     0.4884392973     -1.1916300707     3.9617208374
C     1.4532657918     -1.9798564503     3.3518591774
C     2.5117191839     0.04598036     3.9646291847
C     2.7666584182     -1.2193946917     3.3712433811
C     2.6631443361     1.2091857709     3.1704533494
C     0.4287540703     1.0951829364     3.9453382042
C     1.3606844502     1.9023125696     3.1879150665
C     -0.6965955966     -0.8309055787     3.197222031
C     -0.7409135653     0.6157051472     3.2252803794
C     -1.0245293041     -1.5048380907     1.9798528566
C     1.2394642032     -2.5228557005     2.0413444637
C     -0.0234044264     -2.3697843887     1.3667824424
C     3.2711138243     -1.2961536637     2.0823581108
C     2.4308045961     -2.2244385413     1.3100354317
C     3.0576310322     1.1319985486     1.7908888955
C     3.4431176905     -0.124119368     1.2428571919
C     1.037086128     2.3538531015     1.9113867279
C     2.13186673     1.9533160245     1.003937012
C     -1.1904436322     1.2977890348     2.0838665197
C     -0.3041565995     2.2362496414     1.4093644414
C     -1.9751945542     -0.8483093825     1.1004823113
C     -2.1112556164     0.5852547625     1.2344682626
C     -2.3169827964     -1.4437683528     -0.17789571
C     -0.0265102791     -2.4133752345     -0.0836417131
C     -1.2663661867     -2.2280706256     -0.8161067308
C     2.3576279979     -1.7969979041     -0.0139054256
C     2.9572922976     -0.4651771899     -0.073332349
C     1.1991031911     -2.0715644592     -0.7711064053
C     1.8445501849     1.7129374737     -0.3386682056
C     2.3264816103     0.464995712     -0.9302290694
C     -0.5086639723     2.4970537144     0.006801037
C     0.6126603254     2.2909733109     -0.9095633839
C     -2.6455960777     1.3277680551     0.1601894782
C     -1.8141992931     2.3277948861     -0.5073443664
C     -3.2370210448     -0.732070688     -1.0266114685
C     -3.3810816859     0.6760072157     -0.8273074673
C     -3.2295856663     -0.9145747957     -2.4495119773
C     -1.1815055428     -2.2293737782     -2.2431702277
C     -2.2597752706     -1.6946807135     -3.0619045539
C     1.1217862002     -1.4096629078     -2.0489889476
C     1.6451509719     -0.0511614654     -2.0905723625
C     0.0376209892     -1.7616871782     -2.8680160475
C     0.3237981533     2.0480763014     -2.2513834799
C     0.9570110064     0.8954355532     -2.9243623983
C     -2.1094089725     2.2973366284     -1.9203645892
C     -3.2193504367     1.3804997798     -2.1086537578
C     -3.2434271372     0.4425225672     -3.1290520872
C     -1.0171262823     2.1929093738     -2.8274394163
C     -1.70377831     -0.9514656309     -4.1873750087
C     -0.3218725667     -0.9210246955     -3.9996320748
C     0.0913322332     0.4636815024     -3.9255204197
C     -2.2190348973     0.4309339181     -4.1133088309
C     -1.1181530068     1.3083054981     -3.9552893601


