54

 C     1.1570963254     0.0910190569     3.9689929531
C     2.3705842376     -0.1637808634     3.359280338
C     2.2405175852     -1.4328427632     2.595555995
C     0.3005360844     -1.088145375     3.7261431996
C     0.9112282901     -1.8963578969     2.6740881062
C     -0.9752749784     -0.6374200767     3.5539123864
C     0.384580514     1.2620046433     3.6121141426
C     -0.9869803596     0.8450459387     3.6127689914
C     0.8416088142     2.0836226894     2.4889975381
C     2.9352520326     0.7533192396     2.4541492477
C     2.1545142376     1.8183785828     1.9228682703
C     2.912464064     -1.3313813781     1.3507481701
C     3.4322148629     -0.0001280945     1.3015706285
C     2.3302583164     -1.9002380477     0.1801096483
C     0.1848657235     -2.2306042953     1.4545516997
C     0.9328774204     -2.3643494994     0.1974231212
C     -1.7731851811     -1.0599751077     2.4491663477
C     -1.2446386383     -1.8908748571     1.3909443023
C     -1.9100442265     1.281522421     2.669170784
C     -2.5896243997     0.0847226594     2.1190206542
C     -0.1293756217     2.5479556692     1.5562136508
C     -1.5386347661     2.2707707137     1.7140194807
C     0.1311812334     2.6568406154     0.1164156685
C     2.3804531692     1.8780237265     0.4698294748
C     3.2774840451     0.781607148     0.1409247615
C     1.3695542389     2.2260663067     -0.463177046
C     2.8219126261     -1.3134055189     -1.0293027935
C     3.134929976     0.1152416761     -1.0546464347
C     2.2036360733     -1.6136505967     -2.2329107781
C     0.2045855201     -2.4843290359     -1.0751669378
C     0.9688224399     -2.2838048244     -2.3106754457
C     -1.94295014     -1.866677842     0.1095797221
C     -1.2488056676     -2.2766598097     -1.1238771557
C     -3.203195137     0.130245946     0.9091730962
C     -3.0769086195     -0.9824673211     -0.0029031875
C     -2.1352756108     2.2648763471     0.421832774
C     -1.0839508581     2.5164537172     -0.5944601587
C     -3.1683446927     1.3738530353     0.0991375777
C     -1.1690605656     2.0082671217     -1.9349982886
C     1.3528784857     1.6641100816     -1.8396957643
C     2.3787440161     0.7043422864     -2.1422720423
C     2.1142313777     -0.3644704828     -3.0448261859
C     0.0898127798     1.5943931605     -2.6093374077
C     0.3293552282     -1.7295903326     -3.4927319226
C     0.9792368805     -0.4096519593     -3.7866650276
C     -0.0203918961     0.6178217023     -3.6769146503
C     -1.8505689499     -1.8839611875     -2.3952949445
C     -1.0030943217     -1.5300173545     -3.5257939586
C     -1.2652587186     -0.0923549189     -3.8497609024
C     -3.4458499394     -0.4542478311     -1.2724067483
C     -3.3328996946     1.0028966262     -1.2329030418
C     -2.4251290536     1.3787120108     -2.2907735478
C     -2.9008104919     -0.932225522     -2.4404545368
C     -2.40516408     0.2614996508     -3.1967538336


