54

 C     1.4708412226     -0.1365004226     4.1395954866
C     0.6869661799     -1.3501678931     3.9816181409
C     1.5170661123     -2.2866604584     3.3152059064
C     2.6155077541     -0.2420114191     3.2264788041
C     2.722752051     -1.5454783582     2.7939494638
C     2.5476160212     0.8496967148     2.2390645274
C     0.713157615     0.9421754103     3.7018601844
C     1.4537171007     1.6756008653     2.6812002155
C     -0.5602717327     -0.9909413409     3.3575707543
C     -0.6014991233     0.4749850308     3.3045693181
C     -1.0625173664     -1.7056321647     2.2044692323
C     1.0298303872     -3.0324369616     2.2616549237
C     -0.2679371423     -2.798088954     1.7005230753
C     2.8649398192     -1.834590172     1.3911274542
C     1.9749719427     -2.9116436398     1.1278397916
C     2.7373343049     0.6275828202     0.8386744789
C     2.9547813983     -0.7626838322     0.4028287563
C     2.1107905033     1.5785832057     -0.1153915866
C     0.7391331714     2.4112013435     1.7658887553
C     1.1862335421     2.5236179859     0.4007918511
C     -1.3230811562     1.1524842791     2.3144000844
C     -0.6992165045     2.3121173256     1.7078882319
C     -1.9389296134     -1.0150867074     1.2501742724
C     -2.2017813509     0.4046692163     1.4212883541
C     -2.1196180213     -1.5609674038     -0.0943857801
C     -0.1449260282     -2.9518819518     0.253549977
C     1.2682888882     -3.0072296011     -0.0729648284
C     -1.0562038312     -2.3887586756     -0.6519049233
C     2.5331420194     -1.0955242871     -0.9095132096
C     1.7206520286     -2.2498174715     -1.1618526116
C     1.9358858925     1.2511551547     -1.536393435
C     2.1556636725     -0.1001890825     -1.9159905867
C     1.0097971124     2.0232733991     -2.3576392439
C     0.0729792607     3.0460437381     -0.3756591778
C     -1.123411093     2.853168437     0.4480465334
C     0.0057991558     2.9006173908     -1.7338756593
C     -2.8489015167     1.1404724332     0.3757071939
C     -2.2817332327     2.4115592399     -0.1520400581
C     -2.9479643371     -0.8546433284     -1.0184936268
C     -3.3704568184     0.4821012249     -0.7223871911
C     -2.667849709     -0.8596475826     -2.4143712326
C     -0.5878423588     -2.1126696726     -2.0302779516
C     0.8109375764     -1.9394117312     -2.2177176823
C     1.2807606749     -0.7234597199     -2.8693289885
C     -1.4504615084     -1.3757648765     -2.9204972299
C     0.380110462     1.457425646     -3.4725864337
C     0.4160413732     0.0343873285     -3.6695625857
C     -0.9275409443     -0.3954646054     -3.8326368485
C     -1.2851452656     2.7299358239     -2.4129365083
C     -2.4333600297     2.4475569809     -1.6009688058
C     -3.2436236605     1.3199465992     -1.9450937755
C     -2.9253047802     0.4834777493     -3.0104999522
C     -1.0276857338     1.9118329766     -3.552844105
C     -1.8184343743     0.7816839945     -3.8381517589


