54

 C     1.0979193809     -0.0058359381     3.9747406354
C     2.3056969963     -0.2845973892     3.398486306
C     2.241249334     -1.6628351846     2.816979541
C     0.2099562359     -1.1813923534     3.7480560018
C     0.879154567     -2.1085563789     2.8359039884
C     -1.0456907115     -0.7229501758     3.498929347
C     0.3367739503     1.1839575772     3.6108979562
C     -1.0481611738     0.757528626     3.4973414458
C     0.8574298993     2.029738406     2.6214287283
C     2.8889674362     0.5938692369     2.3901907015
C     2.1335434593     1.7151699908     1.9737999784
C     2.9381703284     -1.6399975297     1.6347747844
C     3.4054586333     -0.2422661876     1.3629558835
C     2.3854903679     -2.1658521063     0.4469578251
C     0.2254913133     -2.5065015214     1.6223609645
C     1.0356145432     -2.6343742883     0.3964877291
C     -1.7954126864     -1.1849421996     2.3647368901
C     -1.2051665924     -2.1252367468     1.4465066139
C     -1.8612182345     1.1612739243     2.460277697
C     -2.48854645     -0.0507293812     1.8494651165
C     -0.0266209815     2.5560777641     1.5930563008
C     -1.4123697897     2.2012740047     1.5498661087
C     2.0028287904     2.0294496432     0.5671316129
C     0.7021676755     2.6594346791     0.3556278588
C     3.2285534617     0.0158595164     0.0044860369
C     2.8511479145     -1.2622256557     -0.6122718764
C     2.5307084429     1.2016276655     -0.4539409311
C     2.2720557139     -1.2724018698     -1.820959287
C     0.3962701603     -2.6497060549     -0.9362077769
C     1.1494685338     -2.1818193673     -2.0837980612
C     -1.7664844029     -2.1328801238     0.1498621366
C     -1.0106267981     -2.5203264177     -1.038371206
C     -2.991413241     -0.0225691442     0.5416810366
C     -2.7588869204     -1.177989985     -0.2700980481
C     -2.0571426405     2.2996403714     0.3094792719
C     -3.0413877271     1.2642160234     -0.131818174
C     0.0615535104     2.6910223059     -0.9033550853
C     -1.3770594748     2.7544744957     -0.8579925417
C     1.8897379366     1.1871006343     -1.7858643916
C     2.0281109876     -0.0177102371     -2.5431682695
C     0.719893748     2.0387865901     -2.0713652866
C     0.5092848295     -1.6944939631     -3.2222371374
C     1.1059582557     -0.3607736287     -3.5555064317
C     -1.6607989213     -1.9490533845     -2.198326909
C     -2.7505815657     -1.0931303434     -1.7222891205
C     -0.903085121     -1.576354159     -3.3333717959
C     -3.1467722657     1.3178510574     -1.5049862359
C     -2.1506110074     2.3042719503     -1.9808674953
C     -3.0081984772     0.1376891424     -2.3421228255
C     -0.0964240172     1.7213123011     -3.2076565763
C     0.1065259401     0.5013090211     -3.9320393172
C     -1.1734244932     -0.275577274     -3.9362514035
C     -1.5507154698     1.8447123885     -3.111271432
C     -2.1683831829     0.5354316731     -3.4663308415


