54

 C     1.5242081451     -0.2656648753     4.1269249672
C     0.716603102     -1.3615903524     4.0382180564
C     1.2411461694     -2.3108734273     3.0385227299
C     2.6004015979     -0.4220755627     3.1346219785
C     2.4610960161     -1.7340504057     2.5094598676
C     2.5578330343     0.7004404741     2.3007198343
C     0.7210537393     0.9082752479     3.7686747495
C     1.3796202462     1.5371644471     2.706020243
C     -0.6459758366     -0.9606759194     3.6806763854
C     -0.6519512683     0.4890621225     3.534631141
C     0.183348435     -2.5577592246     2.1505897569
C     -0.9899658307     -1.7225196003     2.560493635
C     0.4088074828     -2.7623157467     0.7475044009
C     2.6791646865     -1.8340720056     1.1380519948
C     1.7420676776     -2.5618112394     0.2974481652
C     2.8865830898     0.6073576964     0.8944083035
C     3.080889446     -0.6899906959     0.3424266152
C     2.3552652899     1.6129355328     0.0321914861
C     0.6379738351     2.2574851301     1.7186252104
C     1.285389927     2.4680853907     0.4615836338
C     -1.3980859777     1.0688196536     2.4978911338
C     -0.8072868805     2.1800503452     1.7397570693
C     -1.88185705     -1.2042652329     1.5759210571
C     -2.296597002     0.1865678677     1.7366681387
C     -0.7113447031     -2.5649282321     -0.1895448142
C     -1.9102143059     -1.8180584818     0.2612340433
C     -0.4245649046     -2.5565336825     -1.5667117905
C     1.9720217312     -2.1664918723     -1.064774233
C     2.728037506     -0.945397342     -1.0439982123
C     0.9689234477     -2.3515067114     -2.0159656714
C     2.2110787453     1.4030123434     -1.401263842
C     2.4148897851     0.0969383836     -1.9760374411
C     0.5488390418     2.875752972     -0.71482502
C     1.1656659828     2.2583081159     -1.8842712736
C     -1.5126205102     2.6555726738     0.5921276237
C     -0.8207295322     3.0254951213     -0.6531892399
C     -3.0660063137     0.7568474572     0.705562193
C     -2.7299828975     2.0800314442     0.2173936488
C     -2.7533784931     -1.228610964     -0.7268331006
C     -3.4014045504     -0.002661175     -0.4376765219
C     -1.2837203092     -1.9204675531     -2.5628786712
C     -2.4136274087     -1.2266127123     -2.150172618
C     0.9422528906     -1.5264730371     -3.1501641182
C     1.6179064366     -0.2466311707     -3.1276765786
C     -0.4334003828     -1.337132508     -3.5738009544
C     0.3714877631     1.8839185159     -2.9849396916
C     0.6797974219     0.6880193264     -3.6639177166
C     -0.5932661538     0.0003553522     -3.9325230999
C     -1.6769655498     2.6512916311     -1.7968463298
C     -2.8800927215     2.1069390682     -1.2344259586
C     -3.3269255434     0.846333614     -1.6371549686
C     -2.6881762071     0.121625931     -2.679581668
C     -1.1059571548     2.0282306983     -2.9070280877
C     -1.6782551841     0.7842531639     -3.4321464505


