54

 C     1.4676469737     0.0447444266     3.9544408311
C     0.6336604046     -1.1769684258     3.7499010922
C     1.3659941838     -2.0886983357     3.013889211
C     2.5476043848     -0.0516932552     3.0115614755
C     2.633613329     -1.3851055132     2.5843745958
C     2.3694647308     0.9942121112     2.0019840747
C     0.686302481     1.1360107013     3.6323931143
C     1.2523589573     1.7952233786     2.4340448013
C     -0.6629228076     -0.7892028703     3.2928674283
C     -0.6733227105     0.6620158741     3.4632114955
C     -1.238167914     -1.3303645866     2.0767484413
C     0.8251667412     -2.6724012579     1.8481630808
C     -0.4768638468     -2.3188531543     1.3226267831
C     2.8730864294     -1.6899429227     1.2592748997
C     1.9324810598     -2.7607640229     0.9063594886
C     2.5479311105     0.7305404538     0.6188524037
C     3.0368922349     -0.6295431015     0.2567763419
C     1.769629772     1.5009305871     -0.3651636233
C     0.4130228611     2.4474790175     1.5131446127
C     0.7005553312     2.3998516294     0.0803320884
C     -1.5091393014     1.4122849767     2.7105998201
C     -0.985307163     2.560251249     1.9249997646
C     -2.2562164497     -0.5319714689     1.3726504467
C     -2.5060515688     0.7866012273     1.8953048851
C     -2.5432343208     -0.7477080528     -0.0507620827
C     -0.6961103412     -2.477219156     -0.1317472353
C     -1.7069746826     -1.649155954     -0.8288444261
C     1.7236715717     -3.0849109529     -0.385543475
C     0.3463127398     -3.0807523798     -0.9158085857
C     2.9800081006     -1.06928632     -1.0635535061
C     2.5807672566     -2.4436344799     -1.3624033737
C     1.7834077378     1.0390460387     -1.762346639
C     2.4243507452     -0.210691057     -2.1162031227
C     0.749557396     1.4778234943     -2.6334705136
C     -0.3518210652     2.8651327908     -0.8604373413
C     -0.277582821     2.4143402976     -2.2187727356
C     -1.956112934     2.8969610532     1.0213561703
C     -3.0177171415     1.8488685093     1.087157295
C     -1.6900143608     3.1605837399     -0.3589153141
C     -3.2895606086     0.3077597408     -0.7722989202
C     -3.4702481194     1.6281474993     -0.1645925497
C     -2.8401889855     2.6325488431     -1.0598578741
C     -1.4803893311     2.0646880841     -2.9341741994
C     -3.0316245459     0.5647366068     -2.1219687586
C     -2.7123716668     2.0318599109     -2.2880747863
C     -1.5217946795     -1.3833848273     -2.2729454789
C     0.1373619463     0.5163653903     -3.5590107098
C     -2.0941923953     -0.1900792826     -2.8586072623
C     -1.2387596567     0.7509888897     -3.5191380534
C     0.5028725945     -2.7760410893     -2.2990312662
C     1.8794618066     -2.4222665998     -2.5589864874
C     1.8564180586     -1.0792971093     -3.0981869267
C     -0.339000402     -1.8198229159     -2.924180444
C     0.5460889208     -0.8102374398     -3.5479890005


