54

 C     1.5509435338     -0.0466468858     3.7169570893
C     0.7197291017     -1.2186438703     3.5810099959
C     1.233720489     -2.0481541984     2.51657632
C     2.4508525929     -0.0805529046     2.6441197984
C     2.3679012264     -1.3355903177     1.9450166132
C     2.4157549267     1.1558753911     1.8711213523
C     0.7039420588     1.0857217383     3.419509664
C     1.2870679732     1.902521809     2.3753986185
C     -0.6280582404     -0.7981608284     3.4578473763
C     -0.644806318     0.6899247092     3.3079094242
C     -1.5258052138     -1.5615536434     2.6928072354
C     0.3377068606     -2.7582471502     1.6341459355
C     -1.0671616393     -2.5701732531     1.7843856785
C     0.8236540005     -3.040632444     0.3261356259
C     2.6820656447     -1.4061658376     0.5661528974
C     2.0737506056     -2.5074147322     -0.138542727
C     2.720552484     1.1380863233     0.4949351357
C     2.9753717118     -0.1563514572     -0.1794239435
C     2.1787121776     2.2287423955     -0.2505112892
C     0.4658496688     2.6601223424     1.5088046765
C     1.1082680484     3.0310171283     0.2771145225
C     -1.5044965444     1.3376630884     2.3524456112
C     -0.9889684657     2.4295284766     1.5287156123
C     -2.5885983521     -0.8635993647     2.0433810327
C     -2.5884125827     0.535463888     1.831872406
C     -1.952263403     -2.5253881751     0.586911679
C     -2.932042026     -1.538040188     0.8199886852
C     -0.0772564115     -3.1610048251     -0.8439686617
C     -1.4440984978     -2.7059356141     -0.7329411693
C     2.0118821679     -2.5075463115     -1.5643539114
C     0.6647589569     -2.895941093     -1.9954850685
C     2.7898795841     -0.178542249     -1.5854292045
C     2.3638342534     -1.3754384397     -2.2569977238
C     1.9459636802     2.1377153229     -1.6938595827
C     2.1635459673     0.9156943081     -2.3067336298
C     0.3306463601     3.4906520962     -0.8367105024
C     0.8176895236     2.9248960579     -2.0552042717
C     -1.7084550152     2.7485515761     0.3200876193
C     -1.0667063417     3.3425647683     -0.7892880861
C     -3.1343487444     0.7520424918     0.496301793
C     -3.2763008272     -0.5597902526     -0.1595740295
C     -2.7180131709     1.8347204283     -0.2308098609
C     -1.9405026263     -1.8376738272     -1.7789003828
C     -2.8250752358     -0.7291326338     -1.4612716543
C     0.2195645085     -1.934261972     -2.9776027038
C     1.3069845273     -1.0388838119     -3.2299299675
C     1.1376882525     0.3487369071     -3.2129395017
C     -1.068865405     -1.3818655207     -2.8313303926
C     -0.3072197873     2.2869937072     -2.7301437694
C     -1.480170069     2.6540590087     -2.0151629674
C     -2.47350617     1.7072475812     -1.6800624619
C     -2.4275951074     0.4283128055     -2.2549786145
C     -0.1869504433     0.9478031474     -3.249011308
C     -1.2926042379     0.0466743148     -3.0584849923


