54

 C     1.3487479311     -0.0283701849     3.8064104869
C     0.5487464938     -1.1988070228     3.7738412651
C     1.2023479928     -2.2059176338     2.9788846447
C     2.3966855228     -0.1891983923     2.8623731259
C     2.2547005574     -1.4923377225     2.2381794163
C     2.4028605756     0.9571541772     2.0306101293
C     0.5460802996     1.0952665456     3.3933274828
C     1.2315394107     1.810371806     2.420650993
C     -0.7979835641     -0.8142364747     3.4228815767
C     -0.8017981217     0.5989028446     3.0788275104
C     -1.5834178022     -1.7230561804     2.6847754243
C     0.3964641452     -3.1462123979     2.3225464359
C     -1.0392161385     -2.9831702243     2.3418466346
C     0.7279827414     -3.5089082853     0.9780555483
C     2.3237839118     -1.6087129926     0.81085011
C     1.5683093991     -2.6859289128     0.2054802386
C     2.6837674531     0.8635465252     0.6645195199
C     2.591910984     -0.4338891607     -0.0189888698
C     2.4082268774     2.0704430645     -0.0669394241
C     0.5169700147     2.5328568136     1.4282468774
C     1.280239444     2.9616883087     0.3309540694
C     -1.4933505041     1.0716372448     1.9404663014
C     -0.9155670123     2.2294321688     1.2213107168
C     -2.410237385     -1.2280859234     1.5802812227
C     -2.3705723742     0.132466542     1.1901791578
C     -1.5712842413     -3.330516238     1.022477084
C     -0.5142150036     -3.7115555102     0.2045653012
C     -2.4680079407     -2.2919078825     0.5849006573
C     0.9543887254     -2.5111504493     -1.1195348
C     -0.3609918778     -3.1381728915     -1.0879472235
C     2.196787583     -0.4068563661     -1.4176422401
C     1.2200957601     -1.3944091818     -1.924682231
C     2.5056626531     2.0843158539     -1.4319188404
C     2.3084010863     0.8342112858     -2.1375793726
C     0.6897755386     3.4788949991     -0.8596471992
C     1.5277974794     3.0671141329     -1.9650476683
C     -1.4732282026     2.6413838738     0.0022843091
C     -0.723873362     3.3847953234     -1.0019586928
C     -2.7267938013     0.4541632285     -0.1927775343
C     -2.437773423     1.7702137072     -0.7009966114
C     -2.4860304207     -1.9588401096     -0.763847246
C     -1.4339727915     -2.4365877971     -1.6506327857
C     -2.7839117308     -0.6050366239     -1.1540863983
C     0.1565241058     -0.9558718968     -2.853224991
C     -1.1703777018     -1.4031816109     -2.6040691807
C     -2.2100290267     -0.3864872691     -2.4606163245
C     1.4138359708     1.1386505933     -3.1961639581
C     0.9839604518     2.5611289905     -3.1277403161
C     0.2796714181     0.3308983     -3.4957156026
C     -1.261303393     3.0172312155     -2.2855865231
C     -2.3181066196     2.0131360165     -2.0742967026
C     -2.0469715905     0.9024505742     -2.9526740412
C     -0.4254556036     2.5738154114     -3.3206320319
C     -0.8417948846     1.2012358083     -3.6547794305


