54

 C     1.4151296786     -0.0947915319     3.4911719288
C     2.6071782001     -0.3531207986     2.8137178491
C     2.4780128766     -1.6731186062     2.2096616461
C     0.5608222907     -1.2754153637     3.3919150575
C     1.189653037     -2.2427875095     2.5718023372
C     -0.7653065749     -0.8246132943     3.1147943213
C     0.6131429403     1.0549678037     3.1728464667
C     -0.7569257218     0.6115288191     2.877430083
C     1.1861111337     2.0784087642     2.4323527432
C     3.0780873274     0.583238971     1.8338999949
C     2.5051442553     1.8723603742     1.8182218642
C     2.804599481     -1.5279388025     0.8530723314
C     3.2052382618     -0.1294647733     0.5783338365
C     2.0644997074     -2.2388033745     -0.1135603811
C     0.3983713827     -2.9617165845     1.6036433673
C     0.9152927974     -3.0675241567     0.2765091919
C     -1.6012548857     -1.6359761789     2.3751130095
C     -1.0462685532     -2.8455555941     1.7196671976
C     -2.6018593802     -1.0510125388     1.5316568187
C     -1.5405772795     1.1892643388     1.8460403549
C     -2.5259582164     0.3310783503     1.1425171264
C     0.3500858998     2.8332793281     1.5106339049
C     -0.9962270551     2.394106087     1.1824203448
C     2.4597977183     2.5513288525     0.5859010665
C     1.1996616608     3.3085461822     0.4839922989
C     2.8959536494     0.4815633734     -0.6686475991
C     2.652268687     1.9070397979     -0.6469515404
C     1.8069119841     -1.674975444     -1.3848516798
C     2.2030461795     -0.3213955219     -1.7044752739
C     0.047026577     -3.1527927391     -0.86840039
C     0.5654920316     -2.2602931567     -1.889004929
C     -1.86816182     -3.1121094184     0.6297985096
C     -2.9220392581     -2.0669689641     0.5693555133
C     -1.3480474489     -3.2706813999     -0.6973516316
C     -3.178730315     -1.7552893011     -0.7344628784
C     -2.2107282062     -2.5177713342     -1.5750823911
C     -2.9335343588     0.6661931209     -0.2251466334
C     -3.2106255027     -0.4045858954     -1.1672259605
C     -1.4690098545     2.7421285223     -0.1064551194
C     -2.4507253673     1.8885914524     -0.8072781472
C     0.7930216571     3.3878973519     -0.8499504267
C     1.7250360552     2.5316138917     -1.6102276637
C     -0.5932465762     3.3168700406     -1.1109516211
C     1.4412728634     0.3347217703     -2.6928479986
C     1.2457834979     1.7986444358     -2.6705727761
C     -0.2847905636     -1.5196611084     -2.7363898877
C     -1.7267345676     -1.6465116799     -2.5369324423
C     -2.5354517943     -0.397743273     -2.4489178305
C     0.2112064531     -0.2518312783     -3.2085643911
C     -2.209004614     1.9827334858     -2.1938029198
C     -1.0001122232     2.7824585144     -2.3659430976
C     -0.0884913887     2.064866808     -3.1531101911
C     -2.056047613     0.7805973351     -2.9688135252
C     -0.6979891452     0.80042184     -3.4805498375


