54

 C     1.4594186608     -0.0668221096     3.7571168266
C     0.6563393227     -1.2373018647     3.7083342171
C     1.2885147038     -2.1513839596     2.7759291682
C     2.5327021085     -0.1724464818     2.8611822563
C     2.4082638336     -1.4399976938     2.1560221579
C     2.6106060064     1.0715598997     2.1272462896
C     0.6673661394     1.0921477986     3.373887511
C     1.3798506106     1.8561066623     2.4213350368
C     -0.6823316559     -0.8144677112     3.4237400125
C     -0.6622826805     0.6318420369     3.1107821912
C     -1.504991614     -1.6524333765     2.6776602354
C     0.4786939631     -2.9520015153     1.9818325905
C     -0.9421796253     -2.8505477171     2.1395875314
C     0.7171423145     -3.0845933337     0.5312538103
C     2.5834574853     -1.4702601391     0.7448946656
C     1.6972990381     -2.2990945296     -0.1192582736
C     3.0619225007     1.0208464003     0.8438759385
C     3.1463697834     -0.2776187731     0.1571723813
C     2.6044938668     2.0126504911     -0.1319262303
C     0.6929441265     2.5023937389     1.374405813
C     1.4368258669     2.8121739029     0.137495499
C     -1.3755177969     1.1444154268     2.0033658498
C     -0.7598016419     2.2641171157     1.2721696474
C     -2.4079780565     -1.1005568706     1.6700486057
C     -2.3528126833     0.2665628025     1.3053250098
C     -1.5748175493     -3.1148977059     0.8818587229
C     -0.5658333592     -3.3603010371     -0.1069435811
C     -2.5694287871     -2.121429483     0.6418090263
C     -0.8196133196     -2.9400798593     -1.4144329778
C     1.4163082663     -1.871297397     -1.5219114784
C     0.1871813501     -2.1948781509     -2.1333009424
C     2.9620594686     0.0178138757     -1.1945136816
C     2.794156956     1.4518096637     -1.4082265283
C     2.0593291469     -0.685234277     -2.036077854
C     1.8515536442     1.6315875885     -2.443829459
C     1.3924832371     0.2882596953     -2.8646394662
C     0.7087848947     3.2555777296     -0.9921658587
C     0.9327446372     2.6722851672     -2.3272049934
C     -1.4142159202     2.7530391938     0.1249367198
C     -0.7102846149     3.4677232928     -0.8840953515
C     -2.8197245532     0.6423583291     -0.0441764069
C     -2.4760890396     1.9477643539     -0.5364102934
C     -2.8384722005     -1.7580833054     -0.6864846259
C     -2.091093227     -2.3554955395     -1.733080317
C     -3.0919354274     -0.3617131203     -1.0177719335
C     -0.507596649     -1.2158551081     -2.9951299932
C     0.0479352809     0.0826905111     -3.2993593805
C     -1.8870239986     -1.3423911495     -2.7340792203
C     -2.6356735592     -0.1633628659     -2.3899843766
C     -0.3597758282     2.5248014754     -2.9474436272
C     -1.3251793946     3.1554835357     -2.1425337453
C     -2.3766066786     2.1981000278     -1.9200041289
C     -0.8399866108     1.2132750146     -3.3627732173
C     -2.1835007417     1.0771593247     -2.8155097615


