54

 C     1.362974325     0.086213686     3.7434679495
C     2.4757372847     -0.1384368713     2.8964089501
C     2.3878418976     -1.5028392237     2.3789537829
C     0.5052708981     -1.0684562546     3.6314837371
C     1.1872804177     -2.098661879     2.881394235
C     -0.8198666452     -0.6497473948     3.2274776426
C     0.5520019236     1.2412108862     3.5398979994
C     -0.8302044882     0.7578221979     3.2767801494
C     0.8391918192     2.1741726103     2.5612875743
C     2.7441487067     0.7335148083     1.8148983842
C     2.0000184115     1.9747649771     1.6963890894
C     2.6247154779     -1.4830555999     0.9835310064
C     2.8955414072     -0.1019889149     0.6151963199
C     1.9238962976     -2.3549872953     0.0976404031
C     0.4521074671     -2.897050541     2.0383951819
C     0.9689006739     -3.2395791644     0.735690122
C     -1.5509629915     -1.3451741647     2.1797107762
C     -1.0106443616     -2.6326775484     1.8346383585
C     -2.2845724575     -0.5927653668     1.1669512882
C     -1.4119509355     1.5098203127     2.2579835013
C     -0.4479090986     2.5302578633     1.8870220028
C     -2.2300220451     0.8857529671     1.2423820804
C     -0.5150480647     3.1748324511     0.6577751368
C     1.904645642     2.5214292492     0.4223813518
C     0.7618521838     3.3779447474     -0.0231098688
C     2.5918455859     0.3689854284     -0.66877165
C     2.3648397599     1.7946221973     -0.7473405625
C     1.6828565385     -1.9175593654     -1.2999804084
C     1.9640664937     -0.5186879512     -1.6750570578
C     0.6825767488     -2.6235049737     -2.0445976463
C     -0.144743517     -3.7175700732     -0.015293766
C     -1.383253864     -3.2366436927     0.6473694467
C     -0.2520610511     -3.5031252618     -1.3529388808
C     -2.5873914095     -1.2191989217     -0.1340037753
C     -2.1828807436     -2.5792710502     -0.3338772965
C     -1.6200151707     -2.9888893718     -1.6149183383
C     -2.707470116     -0.3622990654     -1.3398614255
C     -2.442855739     1.6718213378     0.1024610086
C     -1.6932380697     2.9108478213     -0.1488600424
C     -2.7481519236     1.0550058572     -1.1792156128
C     -1.6278814294     3.0786475476     -1.5522773397
C     -2.2658659117     1.9258314256     -2.1855807918
C     0.795344248     3.4311297556     -1.4039152033
C     1.7302063092     2.3632148238     -1.8499837277
C     -0.3852309486     3.3044168251     -2.1934244416
C     1.1956993062     0.113188515     -2.7429178731
C     -1.3832434934     1.4191000334     -3.1920590717
C     1.0828879911     1.5618574938     -2.8105006893
C     -0.1761433211     2.2098123364     -3.1097083031
C     -0.1073221953     -1.9323991712     -3.0104230974
C     -1.5362941306     -2.1119594196     -2.6497048269
C     -2.1400244057     -0.8216606198     -2.5923064309
C     0.0798541785     -0.5951285911     -3.3102454166
C     -1.2710534557     0.0570995829     -3.336693924


