54

 C     1.3744225727     -0.0199155059     4.6023362448
C     0.4713490732     -1.1470579622     4.7609184335
C     1.0419445226     -2.2283124372     4.0961297689
C     2.4686602895     -0.4550445089     3.6787997034
C     2.2822167906     -1.8171271259     3.3694427761
C     2.5598845261     0.4466095639     2.5817201002
C     0.6785224283     0.9341082069     3.8732404454
C     1.4699848567     1.4133607669     2.7632107223
C     -0.7787880427     -0.875349005     4.0540626023
C     -0.6664302475     0.4139718631     3.4919708745
C     0.1416298575     -2.8243709136     3.1557628226
C     -1.0300790877     -1.9658619325     3.0955140308
C     2.1479268564     -2.2594864135     2.0135041923
C     0.872133131     -3.0052592737     1.9456897604
C     2.768931892     -0.0289085244     1.2433469036
C     2.4759967591     -1.4138740137     0.8956195584
C     2.5195651744     0.9326212843     0.2427421235
C     0.8520289635     2.0049284811     1.6726095426
C     1.6460056582     2.0377695297     0.4972492714
C     -1.2183764875     0.7515465155     2.2026537933
C     -0.5998911675     1.8077602021     1.4199975889
C     -1.6157422579     -1.6841483184     1.8480238567
C     -1.920423861     -0.275697873     1.4537977463
C     0.1737551281     -3.0085421092     0.7582591318
C     -1.1712968518     -2.4910878672     0.7484499539
C     1.8631769131     -1.6611611104     -0.4410630294
C     0.7623703162     -2.5465425724     -0.4788802792
C     2.3580554151     0.6290526474     -1.1573809211
C     1.9069900324     -0.6556071243     -1.535910371
C     1.1314418956     2.5156067531     -0.7275479576
C     1.7927884115     1.8001134469     -1.7894561867
C     -1.121232799     2.1448709231     0.1411914889
C     -0.2598857243     2.836762059     -0.8644683315
C     -2.3716888879     0.0183391923     0.1382420725
C     -2.2128303424     1.3569993527     -0.4033856345
C     -1.4850324198     -2.1366846574     -0.5816310771
C     -0.3179697653     -2.2854695867     -1.3971701416
C     -2.3733981357     -1.0699852755     -0.8748269562
C     1.0036218775     -0.7243649475     -2.720240912
C     -0.1854691271     -1.5586376564     -2.5980374942
C     1.1836104108     1.742017285     -3.0236813376
C     0.8541076336     0.4146941253     -3.5877100283
C     -0.7189063191     3.0406823886     -2.1783833479
C     0.1276026439     2.6589263592     -3.2969128914
C     -2.663974393     1.6325977382     -1.7455838605
C     -2.085358952     2.6353443577     -2.5521468505
C     -2.4956817351     -0.7830994248     -2.2253599813
C     -1.4324011845     -1.139484059     -3.1729470106
C     -3.0099925418     0.4986363158     -2.6506710239
C     -0.307146842     0.6033896573     -4.4051357669
C     -0.723237606     2.0323430566     -4.2632587613
C     -2.0691804226     2.1288682993     -3.9231316161
C     -1.4772779602     -0.1542375763     -4.1986809833
C     -2.6170308986     0.7833974442     -3.9508826875


