54

 C     1.6466598896     0.     3.7023729191
C     0.8035066767     -1.1458429908     3.5370412771
C     1.3216640397     -1.9955875095     2.5136726431
C     2.5525460929     0.     2.6107800024
C     2.3806937922     -1.2220494944     1.8704494906
C     2.3806937922     1.2220494944     1.8704494906
C     0.8035066767     1.1458429908     3.5370412771
C     1.3216640397     1.9955875095     2.5136726431
C     -0.5805297815     -0.7394335485     3.4777076387
C     -0.5805297815     0.7394335485     3.4777076387
C     -1.4324039939     -1.4258722434     2.617209355
C     0.4419364041     -2.7846335278     1.7209161117
C     -0.9672209996     -2.549060415     1.8366444497
C     0.9436519053     -3.1793930039     0.4299615815
C     2.5656668525     -1.2663549201     0.4511330483
C     2.003165834     -2.3848884577     -0.2100065232
C     2.5656668525     1.2663549201     0.4511330483
C     2.7424252877     0.     -0.290243699
C     2.003165834     2.3848884577     -0.2100065232
C     0.4419364041     2.7846335278     1.7209161117
C     0.9436519053     3.1793930039     0.4299615815
C     -1.4324039939     1.4258722434     2.617209355
C     -0.9672209996     2.549060415     1.8366444497
C     -2.3893787373     -0.6927333161     1.7799432344
C     -2.3893787373     0.6927333161     1.7799432344
C     -1.7964129433     -2.6295323544     0.6452494486
C     -2.5845290412     -1.4150972632     0.5489272662
C     0.0663726704     -3.6068231268     -0.5749481655
C     -1.3353096696     -3.26690575     -0.5105672986
C     1.7466380553     -2.3775383325     -1.6369894598
C     0.5805012029     -3.1880532846     -1.8751780806
C     2.4313008884     0.     -1.6695630765
C     1.8884604287     -1.1759918074     -2.3307054561
C     1.7466380553     2.3775383325     -1.6369894598
C     1.8884604287     1.1759918074     -2.3307054561
C     0.0663726704     3.6068231268     -0.5749481655
C     0.5805012029     3.1880532846     -1.8751780806
C     -1.7964129433     2.6295323544     0.6452494486
C     -2.5845290412     1.4150972632     0.5489272662
C     -1.3353096696     3.26690575     -0.5105672986
C     -2.7562146186     -0.7308165576     -0.698064273
C     -2.7562146186     0.7308165576     -0.698064273
C     -1.681884959     -2.6886685528     -1.7790377645
C     -0.4730033965     -2.6793908134     -2.6203635619
C     -2.2926505035     -1.4327700391     -1.8809190307
C     0.8408530955     -0.7231826319     -3.2468442417
C     0.8408530955     0.7231826319     -3.2468442417
C     -0.3784050596     -1.4197226693     -3.2875859847
C     -1.6016333212     -0.6827199462     -2.9543187864
C     -0.4730033965     2.6793908134     -2.6203635619
C     -1.681884959     2.6886685528     -1.7790377645
C     -2.2926505035     1.4327700391     -1.8809190307
C     -0.3784050596     1.4197226693     -3.2875859847
C     -1.6016333212     0.6827199462     -2.9543187864


