54

 C     1.5467962952     -0.1210877777     4.2403433125
C     0.6965577422     -1.2785636108     4.2284041565
C     1.1521992649     -2.1373101476     3.1790679529
C     2.4425489389     -0.263795206     3.1105636943
C     2.2708034738     -1.547663112     2.4926961599
C     2.4697651959     0.9176705749     2.2580470119
C     0.7366077877     0.9677853294     3.8111032626
C     1.4029340723     1.7547824169     2.77605585
C     -0.6048011634     -0.8788515885     3.7693114673
C     -0.6271940185     0.5465872081     3.5747056101
C     0.0369407707     -2.6142471185     2.3845175428
C     -1.0858140689     -1.7339379446     2.6884745279
C     0.2816415526     -2.9296299364     1.0756275237
C     2.4143623466     -1.6819254134     1.0730113258
C     1.561889438     -2.6265206444     0.4327362956
C     2.6754299488     0.8232042001     0.8639742823
C     2.8463359714     -0.5192069918     0.2728418045
C     2.0826263839     1.8842697054     0.0119203431
C     0.6099880325     2.4580344531     1.9089665761
C     1.0361798108     2.6699586849     0.5419000769
C     -1.3769666525     1.1155475827     2.5101725851
C     -0.8386246983     2.2855919301     1.8891558497
C     -1.8853400267     -1.2278363704     1.647040241
C     -2.2099790844     0.2153715645     1.6615891095
C     -0.758751355     -2.7642692115     0.0821478683
C     -1.8598031078     -1.9071975394     0.3275732073
C     1.3150569419     -2.5801856429     -0.9731945447
C     -0.1246607666     -2.7966319305     -1.2112118193
C     2.7510938339     -0.6271326168     -1.1273413517
C     2.0151014265     -1.6953034436     -1.7795829382
C     2.0649399858     1.7138646783     -1.4143365837
C     2.5641061555     0.5371066737     -1.9617290152
C     0.9373374986     2.1656198001     -2.2672063957
C     -0.1398568401     2.9725878586     -0.2517511761
C     -1.2674058038     2.683062719     0.5994628491
C     -0.2100360741     2.7540241338     -1.6650652636
C     -2.7998261751     0.7479638218     0.5232374493
C     -2.4274945162     2.0923759639     0.0366588004
C     -2.5422415235     -1.331662224     -0.8366578547
C     -3.1486034262     -0.0428666344     -0.6597347918
C     -0.7539198771     -2.2793381857     -2.3142686983
C     -2.0667497181     -1.6647559264     -2.1671791421
C     1.3668387358     -1.1488011091     -2.9828477609
C     1.7648834563     0.1945898148     -3.1262014079
C     0.8074546522     1.2334947818     -3.366079207
C     0.0249353726     -1.5198395123     -3.3091111688
C     -2.1659999629     -0.7172822833     -3.2334261856
C     -0.4890545937     0.8677423697     -3.8289028138
C     -0.832758069     -0.5466987238     -3.8377259581
C     -1.5229270607     2.45588651     -2.2400658041
C     -2.6165766097     2.1394248131     -1.3311563559
C     -3.2155212381     0.8688755857     -1.7538998263
C     -1.6218357617     1.5647663873     -3.3313710721
C     -2.6826128933     0.5523512842     -3.0012596309


