54

 C     1.4328099815     -0.0254823148     3.9209624825
C     0.6301324808     -1.1798194533     3.6459938127
C     1.2130150528     -1.9202207025     2.5799068567
C     2.5033843015     -0.0216465133     2.9689914531
C     2.4115164689     -1.1792248519     2.1467625827
C     2.5589282313     1.2531771023     2.2878115429
C     0.6127483201     1.0636362661     3.5150639839
C     1.2806214021     1.913151632     2.5575104693
C     -0.7551736247     -0.7958283323     3.4855441773
C     -0.7541425169     0.6551208704     3.2928841436
C     -1.5895243556     -1.5867910432     2.711171528
C     0.3770523052     -2.6020199617     1.619750214
C     -1.03901721     -2.5683306384     1.7847491058
C     0.888701723     -2.7045319866     0.2819899202
C     2.7792166399     -1.1168369843     0.7515963188
C     2.059110749     -1.9809046501     -0.1410016634
C     3.1040964032     1.3151276307     1.0148739729
C     3.2864745958     0.1059854433     0.2214951901
C     2.5924406376     2.3150272695     0.1423573315
C     0.5424547091     2.5491209276     1.5192943102
C     1.2984638306     2.8885741658     0.3377465735
C     -1.5322988567     1.2663657466     2.2691203897
C     -0.9007045042     2.26055802     1.3749886905
C     -2.658905099     -0.9317153292     2.0402193367
C     -2.6176903616     0.4673386552     1.7530637981
C     -1.910732406     -2.5718632215     0.6146394984
C     -2.9609692676     -1.6367921692     0.835868649
C     0.0133938204     -2.8576361288     -0.8606823137
C     -1.398319363     -2.7200512057     -0.7192671072
C     1.9201518991     -1.6787473026     -1.5497940261
C     0.7042340629     -2.3147796919     -2.0113775749
C     3.0109983712     0.4710887341     -1.1640981318
C     2.6905864872     1.857387702     -1.2066312875
C     2.3298208555     -0.4150588143     -2.0666352983
C     0.6743954992     2.9958265974     -0.9614043812
C     1.562067697     2.3512739219     -1.9421055073
C     -1.4811033978     2.4507378608     0.0943844826
C     -0.6953116203     2.8150610857     -1.0754441282
C     -3.1251088774     0.6467120393     0.4117551253
C     -3.3526625789     -0.6873498323     -0.1658979205
C     -2.5908129202     1.6431320384     -0.3904006793
C     -2.1215443733     -2.0497319048     -1.7988767455
C     -3.045634678     -0.9324114576     -1.4833934212
C     -0.0139154993     -1.7792406021     -3.0823162434
C     -1.4485345486     -1.6940701087     -2.9662382065
C     1.4990009055     0.188737799     -3.1073595262
C     1.0340424217     1.5899250267     -2.9578087004
C     0.4338641569     -0.5302419383     -3.6465463098
C     -1.2620658682     2.1678690476     -2.2523202137
C     -2.4416244137     1.4385849551     -1.8260219562
C     -2.7392474006     0.1752783228     -2.3855061153
C     -1.8666786239     -0.3401929753     -3.3909915078
C     -0.4009828795     1.6209539888     -3.2305663474
C     -0.7410187732     0.3557672397     -3.7978106138


