54

 C     1.5027978916     0.1436546922     4.0486534975
C     0.6769193155     -1.0681350007     3.7773523448
C     1.411023619     -1.9085724185     2.959621873
C     2.5864033802     0.1358868053     3.1056899221
C     2.6242517781     -1.1409535685     2.5301131935
C     2.4370007226     1.3135240789     2.2317281969
C     0.7076202501     1.2505392872     3.8102830758
C     1.3464167874     2.0968073861     2.8012799364
C     -0.6368243436     -0.6650582329     3.3840532688
C     -0.6687381901     0.8035494926     3.5412640746
C     -1.2701213021     -1.2585621432     2.2494214706
C     0.8322950271     -2.4732738118     1.7968345198
C     -0.5414488169     -2.2662487722     1.4624794101
C     2.7501596693     -1.3030877656     1.1513858974
C     1.7984047972     -2.3242627988     0.7233764405
C     2.5691252136     1.1984285341     0.8257126145
C     2.9028903183     -0.1425433092     0.2899665928
C     1.7709905717     2.0945311642     -0.0571781665
C     0.5250724467     2.8382097949     1.9722229856
C     0.7962169889     2.9210557592     0.5514854481
C     -1.477344688     1.5991898625     2.7584037893
C     -0.9243344161     2.7930711592     2.157266116
C     -2.2839572984     -0.4432209451     1.5435881136
C     -2.3511901863     0.975787734     1.7720173948
C     -2.7460444639     -0.8923848396     0.3003408217
C     -0.9401048892     -2.5756825243     0.0870415763
C     -2.2046038247     -2.0771438491     -0.3369577718
C     1.458672909     -2.4910414706     -0.6156257621
C     0.0701756176     -2.8542563249     -0.957696926
C     2.7258407644     -0.4068474399     -1.0614668343
C     2.2283695351     -1.688338113     -1.5267395065
C     1.5825136573     1.7674046267     -1.4834075996
C     2.2455849541     0.6128410064     -2.0139571809
C     0.3647998922     2.1299637392     -2.1505273598
C     -0.4947535562     3.1325577485     -0.1055426267
C     -1.5206242461     2.9297828773     0.9004686666
C     -2.4884422006     1.8863315469     0.6673294403
C     -0.7235268089     2.6784872544     -1.374264996
C     -3.1468721176     0.0490030359     -0.7677225769
C     -2.7435246031     1.4213652089     -0.6527342306
C     -1.9592821174     1.9565515355     -1.7357943549
C     -2.5153435945     -1.9764034491     -1.7242574404
C     -3.0252710654     -0.6096175243     -1.9899078234
C     -0.2971530444     -2.7565134763     -2.3374075162
C     -1.6185143568     -2.327178276     -2.699505416
C     1.7642550473     -1.504017058     -2.8481350043
C     1.7514071957     -0.0497076415     -3.141289275
C     0.5829362522     -2.0691181303     -3.2647683478
C     -0.224260681     1.3323423548     -3.199324569
C     -1.6765378124     1.1903653968     -2.9012362598
C     -2.3083008757     -0.0681928374     -3.0986338589
C     -1.519571886     -1.164881275     -3.6435529698
C     0.4942996544     0.2624743951     -3.7465920702
C     -0.1997528413     -1.0084635011     -3.9651542479


