54

 C     1.6858857536     -0.0321047227     4.5268357553
C     0.8220816238     -1.1971149933     4.6528363323
C     1.3388042099     -2.170624655     3.8359848538
C     2.704750894     -0.3064479519     3.4587161833
C     2.4989739252     -1.6341057531     3.0489183414
C     2.6257718174     0.7188169416     2.4487451404
C     0.8978609139     0.9857583973     4.0296705675
C     1.5839876722     1.6413974887     2.9340809978
C     -0.5167161699     -0.8671339489     4.0922246367
C     -0.4968786325     0.4856056388     3.7368121837
C     0.3431116723     -2.6440377481     2.896400748
C     -0.8383140496     -1.8036369372     3.0205835121
C     2.2509961132     -1.9257867402     1.6831178363
C     0.9539852196     -2.6443323995     1.637916709
C     2.6330905345     0.4281698404     1.0439570509
C     2.4660386632     -0.9588646523     0.6428064661
C     2.0915610043     1.4344808262     0.1031036487
C     0.8324343081     2.315542569     2.035139843
C     1.2774842967     2.436815661     0.6749705136
C     -1.1874741547     0.9728036273     2.5693858306
C     -0.639970752     2.1411331113     1.9582634079
C     -1.5036409423     -1.3642976029     1.8397575615
C     -1.8509691001     0.0391157051     1.6562067634
C     0.1645726297     -2.5291386838     0.4916898234
C     -1.1770059905     -2.047297203     0.5904678971
C     1.9115809786     -1.2528400591     -0.6693010753
C     0.8693510226     -2.2401980248     -0.7266246738
C     1.8941937923     1.1351448985     -1.331492805
C     1.9135800072     -0.2685271918     -1.7587212132
C     1.1344174524     2.037996071     -2.127198649
C     0.1610714164     2.9253909279     -0.0702865135
C     -1.0406992561     2.5467479643     0.6834846363
C     0.1975616276     2.9157672962     -1.4363344159
C     -2.3271759478     0.4933542649     0.3467035472
C     -2.0572259086     1.8621352723     -0.0580561996
C     -1.8726658198     -1.7313500161     -0.6281403768
C     -2.6018774975     -0.48131839     -0.7200256148
C     0.1096069775     -2.4137090251     -1.883154364
C     -1.3271435552     -2.308541647     -1.8226372034
C     1.3240883802     -0.6149097683     -3.0058934046
C     0.5645044764     -1.850382412     -3.119364999
C     0.4724192038     1.6575818877     -3.3764106201
C     0.6227282775     0.3507553499     -3.8660544029
C     -1.0462568276     2.8536803164     -2.119359424
C     -2.179926104     2.2518199031     -1.4350636911
C     -0.8556968605     2.2809180216     -3.4098983513
C     -2.928004505     -0.0100175086     -2.0499495398
C     -2.7304651689     1.3549443979     -2.3692835601
C     -1.9907714479     1.4649257644     -3.6674378624
C     -1.7387188851     -1.8727437547     -3.1344353706
C     -0.5296050533     -1.6706884411     -3.976583237
C     -0.5344074442     -0.3306860571     -4.4526139124
C     -2.5326830173     -0.7571282126     -3.2398718109
C     -1.8422017936     0.1971623474     -4.1845875163


