54

 C     1.5692807247     -0.1195315113     3.7834876467
C     0.7638963264     -1.2561389647     3.4799032484
C     1.3842418233     -2.0353247397     2.4702001216
C     2.6585931549     -0.113492457     2.8491612323
C     2.5658224051     -1.2691931821     2.0252058292
C     2.66746324     1.1561455449     2.1545550641
C     0.7545400687     0.9907537519     3.4067222196
C     1.4291758412     1.8554728256     2.4872575443
C     -0.6244384496     -0.8526140906     3.2716266413
C     -0.6173581249     0.594872765     3.1547112467
C     -1.4155790574     -1.600250933     2.4219216811
C     0.5881055484     -2.7703912367     1.5382364264
C     -0.8462810051     -2.6689353843     1.6209757091
C     1.1525034463     -2.9889376142     0.2329938556
C     2.8903147926     -1.2022932206     0.6076152382
C     2.2285918414     -2.1143416791     -0.2551039735
C     3.1673816213     1.2440478978     0.8518709803
C     3.2924685473     0.0536011756     0.0408736637
C     2.621656252     2.2599015401     0.0186641093
C     0.6786895012     2.5637829775     1.504263196
C     1.3941803948     2.8992448514     0.2924317371
C     -1.3995331144     1.2622919458     2.1837145395
C     -0.7696205273     2.3595754208     1.4211689974
C     -2.4480498465     -0.9404344849     1.654677844
C     -2.499094551     0.4877948765     1.5690916624
C     -1.6688800158     -2.7656576295     0.4373159936
C     -2.7033765279     -1.7588699256     0.4931707889
C     0.3129142354     -3.2479775665     -0.8602506053
C     -1.0868438971     -3.070137312     -0.8128189756
C     1.980919018     -1.8099849857     -1.6630247269
C     0.8247683388     -2.5247885572     -2.027146002
C     2.9213647155     0.4130586936     -1.3353076103
C     2.5990841116     1.7884428127     -1.3479519476
C     2.1714002308     -0.4798578149     -2.1695036366
C     0.7056781702     3.0586162665     -0.9886691111
C     1.4508551284     2.3037531825     -2.0090300555
C     -1.41873695     2.7761048482     0.2173559253
C     -0.6605862989     3.0680639454     -1.01838211
C     -3.1632452811     1.0261638421     0.4234217457
C     -2.6384092343     2.2086096996     -0.1828280159
C     -3.2034473445     -1.1768202184     -0.6899487926
C     -3.5695144282     0.1742266395     -0.656078068
C     -1.4842076457     -2.3277133834     -2.0277697832
C     -0.2489721627     -1.9610135059     -2.7420019014
C     -2.5261335322     -1.4304833317     -1.9789375762
C     1.130700378     0.0749423936     -3.0027512692
C     0.7543934271     1.4787368262     -2.889914959
C     -0.089617868     -0.6551100423     -3.2548838518
C     -1.3844070133     2.4619380464     -2.1456488392
C     -2.6552426981     2.0599215158     -1.6445811735
C     -3.1843337795     0.8064757152     -1.9314501652
C     -2.4427135681     -0.1410478264     -2.6981444461
C     -0.6913657534     1.5929365668     -3.010089048
C     -1.2189945986     0.2618650607     -3.2703782739


