54

 C     1.5734747983     -0.0164346523     3.9770570593
C     0.7339828644     -1.2108660001     3.8534394867
C     1.4012147379     -2.1546303202     3.0740081064
C     2.6471507669     -0.1652933257     3.0383088298
C     2.6053045465     -1.4835102372     2.5307521445
C     2.5878913766     0.9220520916     2.0687565749
C     0.7792927242     1.0467181379     3.5022793318
C     1.4522671523     1.7424613227     2.4284783845
C     -0.6084681226     -0.8067486475     3.462722183
C     -0.5955402909     0.6425401995     3.2825933112
C     -1.2995235089     -1.5831166865     2.5234146444
C     0.7536160722     -2.8039394302     1.971033695
C     -0.619923456     -2.6348207919     1.7767392976
C     2.6786171821     -1.7541525909     1.1480124649
C     1.6161127308     -2.6883699719     0.8008514139
C     2.8718070588     0.7016843325     0.6916243601
C     2.9956095204     -0.6970151019     0.2088199227
C     2.3332538531     1.6667782255     -0.2114074208
C     0.6955693515     2.4366518284     1.4637310816
C     1.306048656     2.5770686447     0.1853997692
C     -1.3742245627     1.2787255446     2.2955836442
C     -0.7789275368     2.3962796433     1.5340983495
C     -2.2227395542     -0.9517040644     1.6236356757
C     -2.3783173914     0.4658125705     1.5941382102
C     -1.1685378616     -2.6405426278     0.4374563087
C     -2.2561840231     -1.7066509892     0.3854236434
C     1.1151746374     -2.7793361723     -0.5158068503
C     -0.3514639923     -2.8468265663     -0.7161814411
C     2.7211358154     -0.9785502954     -1.132760157
C     1.9117222286     -2.1230133026     -1.519383923
C     2.1452347715     1.3889119964     -1.6287833179
C     2.437722237     0.0910860073     -2.1116370586
C     0.5231397171     2.8978000139     -0.9861867655
C     1.0257927158     2.1212745555     -2.1260705246
C     -1.4904806606     2.8952376461     0.4346554282
C     -0.8150427369     3.1866879863     -0.8457414678
C     -3.0418066654     1.0189248116     0.4677475508
C     -2.7717503029     2.3366112863     0.0664519374
C     -2.6958801464     -1.1239309418     -0.8398903575
C     -3.2537943995     0.2142757469     -0.7738682418
C     -0.894972749     -2.4089710555     -1.9692760028
C     -2.0598413567     -1.5370825237     -2.0321026578
C     1.3377660989     -1.8265560943     -2.7771392434
C     1.6537525522     -0.4302775928     -3.1422889465
C     -0.0144233967     -2.0132544163     -3.0160132944
C     0.1181935473     1.5443959651     -3.0924270196
C     -1.8369549856     -0.5457206926     -3.1100185211
C     0.4643579227     0.2292718438     -3.5982127549
C     -0.5509348126     -0.7796515737     -3.6189347931
C     -1.7121860785     2.7843922487     -1.9182516099
C     -2.9360357322     2.400123046     -1.3720279226
C     -3.2133564701     1.0804360338     -1.8785573456
C     -1.2779962754     1.8422478342     -2.9487605225
C     -2.2658985866     0.7825171018     -2.9454846493


