54

 C     1.4626730832     -0.2069654465     4.5093860761
C     0.5774697813     -1.26300386     4.5663830706
C     1.1178125966     -2.4115282991     3.8550462045
C     2.5586826899     -0.6171465066     3.5887763275
C     2.345242826     -1.9553186662     3.1674237792
C     2.6808279573     0.3822257019     2.6016229892
C     0.785020849     0.9100158353     3.8712131378
C     1.5632537677     1.3470213448     2.7979633407
C     -0.6983885256     -0.8469679468     3.9351160642
C     -0.5849026127     0.5125571711     3.5106767228
C     0.2018205691     -2.7096761093     2.8501382358
C     -0.9833843961     -1.8216092637     2.9408955764
C     2.188565217     -2.1970520339     1.7485027826
C     0.8707552005     -2.7666685068     1.548080138
C     2.9768607061     0.054047743     1.2516776824
C     2.6276728311     -1.2761558605     0.7524251872
C     2.8384961939     1.1384031058     0.3551159978
C     0.9658658597     2.0087901232     1.6574913188
C     1.8205790148     2.1537237083     0.5670286514
C     -1.1466565716     0.9166807416     2.2510381749
C     -0.4758224683     1.8867110172     1.4017847274
C     -1.6101519365     -1.4514797917     1.7572752709
C     -1.9422974273     -0.0543565589     1.5166505187
C     0.1436498014     -2.5688517947     0.3735222174
C     -1.2623406593     -2.1963645311     0.5456115334
C     2.0462611455     -1.3712103688     -0.6000183269
C     0.7939093565     -2.0554564944     -0.8247110451
C     2.8248915906     0.9045382977     -1.0237234853
C     2.3519477725     -0.3338329172     -1.542615397
C     1.3118064033     2.5624151169     -0.7378909756
C     2.1064217158     1.9571115959     -1.7244445814
C     -1.0051617054     2.2113787179     0.0890971286
C     -0.1055660291     2.7187889959     -0.9467009657
C     -2.5513723664     0.3100649684     0.2808293194
C     -2.2567707058     1.5870707646     -0.3584057673
C     -1.9763156204     -1.8966972078     -0.5680453121
C     -2.9111102749     -0.7779025948     -0.5917981901
C     -0.0092739023     -1.8027796838     -2.0363304234
C     -1.4138716723     -1.9804335736     -1.9120170316
C     1.5540518436     -0.0567341826     -2.729024257
C     1.4820459875     1.3962778094     -2.8653310537
C     0.4196467061     -0.8409547684     -3.0793959808
C     -0.5250826895     2.6989490521     -2.3096513493
C     0.3184451741     1.9933507829     -3.3223189144
C     -2.7311426515     1.8073399273     -1.6982527556
C     -1.8824522246     2.468861185     -2.6460451909
C     -3.2948175197     -0.5625843068     -1.9153558786
C     -2.3535584779     -1.3620755079     -2.7902914514
C     -3.3831999224     0.7157340934     -2.4537582164
C     -0.562843143     -0.229545902     -3.9670191164
C     -0.5609689335     1.2010442091     -4.095130255
C     -1.9172043972     1.6990960078     -3.890298729
C     -1.9853276809     -0.5829304061     -3.8640586056
C     -2.8046921057     0.654085094     -3.7981389384


