54

 C     1.5845255017     0.0275558973     3.7424856871
C     0.7635873764     -1.1059482421     3.5579493307
C     1.3287679013     -1.9442031891     2.5359882745
C     2.5292629186     0.0507781059     2.6766157508
C     2.371574085     -1.1478649659     1.8967150486
C     2.4638094118     1.3053540732     2.0005074986
C     0.7768050759     1.2162388041     3.5790488196
C     1.4424501408     2.1133003238     2.6942768457
C     -0.5926148082     -0.6409609872     3.3513008263
C     -0.5642363797     0.8399648988     3.2881751137
C     -1.4032293013     -1.3350641736     2.4806349102
C     0.492374149     -2.7608250508     1.7434256831
C     -0.929961731     -2.5449953764     1.8137972187
C     1.0231995356     -3.1420909645     0.4664776854
C     2.4914914974     -1.1020406344     0.4661793825
C     1.96628975     -2.2175250579     -0.2177523585
C     2.6082276604     1.4072496571     0.5712920087
C     2.5903533462     0.1901178519     -0.2460743076
C     2.1388866104     2.6433756281     0.0024676605
C     0.6592894816     2.9903615005     1.9547198034
C     1.1779262918     3.4370309286     0.7110964571
C     -1.3317877536     1.546368808     2.2881724731
C     -0.7600334918     2.7417014651     1.7659027827
C     -2.2971968822     -0.6482872689     1.5612164871
C     -2.249615821     0.7744937671     1.4152696299
C     -1.7411788263     -2.733267824     0.6512929526
C     -2.5537667399     -1.5266077196     0.4574479226
C     0.1861086694     -3.6534662618     -0.5108319672
C     -1.2333863613     -3.4307083173     -0.4624020989
C     1.667922121     -2.2012934336     -1.6226145136
C     0.6620320954     -3.2001419254     -1.8366605426
C     2.1190427731     0.2486977492     -1.6285054693
C     1.6142009982     -0.9418129357     -2.3169013634
C     1.7369880922     2.68215763     -1.3628443824
C     1.6739090949     1.5317652586     -2.1374559361
C     0.0933209652     3.7806344939     -0.1796664843
C     -1.1022822041     3.2410947717     0.4212930678
C     0.4582026361     3.4323955026     -1.4838681567
C     -2.5702934026     1.2781028268     0.1223247796
C     -1.9643169535     2.5085879839     -0.3846813494
C     -2.7985532742     -1.0161387694     -0.8510487149
C     -2.8088887564     0.4033412858     -0.9921347438
C     -1.6263310829     -3.0032022909     -1.7812024619
C     -0.4260375831     -2.9734403969     -2.6567508532
C     -2.3601605758     -1.821531105     -1.9915593335
C     0.5398498792     -0.795143006     -3.2867102926
C     -0.464687231     -1.7868211064     -3.4095015343
C     -1.7395144501     -1.1330996001     -3.1141566861
C     0.4173225747     1.6242023489     -2.9152578477
C     -0.4001740783     2.6850351042     -2.3043218849
C     -1.684602189     2.3141299552     -1.8025194101
C     -2.2260394667     1.0460572414     -2.1690925511
C     -0.1578255963     0.4954491229     -3.3933040671
C     -1.5910056925     0.250937648     -3.1582548094


