54

 C     1.6115394975     0.0454114987     3.73663694
C     0.8085473393     -1.0965273873     3.5409554395
C     1.3894079009     -1.9389718075     2.5116468616
C     2.5396385837     0.0752408287     2.6566532394
C     2.4333630574     -1.1605332322     1.9012947977
C     2.4526599088     1.3146611047     1.962185218
C     0.7727439991     1.2160279529     3.5638552335
C     1.4090202244     2.1093505906     2.6462928834
C     -0.5517287726     -0.6609779699     3.3453455327
C     -0.5667368823     0.8213922322     3.3128036475
C     -1.3520188856     -1.3683328677     2.4673679341
C     0.5606837989     -2.7647968822     1.7035607041
C     -0.8574751489     -2.553276717     1.7717205428
C     1.1044458778     -3.1449160235     0.4313796622
C     2.6371001082     -1.1625974476     0.4833424859
C     2.1251472891     -2.2907196253     -0.2037067724
C     2.595908124     1.376349245     0.5303287717
C     2.7514469788     0.126411211     -0.2297593605
C     1.9998676206     2.5096770428     -0.1160778816
C     0.6043427814     2.948151035     1.9000454206
C     1.0656666697     3.3223071726     0.5897857114
C     -1.3723036333     1.5233981731     2.3437925689
C     -0.8207140082     2.717210117     1.7935890232
C     -2.2910698422     -0.6925950929     1.594713765
C     -2.3161613981     0.7400308158     1.500041521
C     -1.6680568124     -2.7221098222     0.6014975223
C     -2.5240799768     -1.5456887778     0.460521025
C     0.2543141884     -3.6054854444     -0.5831779896
C     -1.1542035228     -3.3577439284     -0.5394033699
C     1.8731330096     -2.2709494617     -1.6271467143
C     0.764076945     -3.1431562128     -1.884235043
C     2.3930697703     0.1415128163     -1.6070420026
C     1.9287140959     -1.0400879919     -2.2981477832
C     1.5280963853     2.4487658582     -1.4942433433
C     1.7367980076     1.2904789712     -2.2147835083
C     -0.0380737398     3.6126712308     -0.2543624664
C     -1.2167936129     3.1875165313     0.4574890337
C     0.2458927834     3.1475091918     -1.5847873149
C     -2.7539439833     1.2705027021     0.2598573179
C     -2.210325084     2.5308901982     -0.2565090887
C     -2.8114634946     -0.9958879706     -0.8206217439
C     -3.001298767     0.4129186455     -0.8793819509
C     -1.5199162151     -2.8370481025     -1.84750331
C     -0.300115036     -2.7346282428     -2.665720202
C     -2.2528351409     -1.6658837544     -1.9975925764
C     0.8524197638     -0.6489331518     -3.2086776907
C     0.7173402662     0.7928344435     -3.136044351
C     -0.2942350481     -1.4594267064     -3.3209541545
C     -1.5854001003     -0.8472582276     -3.0520701284
C     -0.7906779757     2.5770526906     -2.3258966359
C     -2.0745257938     2.4024886447     -1.6823677196
C     -2.5719191198     1.1313161383     -2.0462830053
C     -0.5429111555     1.3930628869     -3.151463094
C     -1.7164018354     0.5233929193     -3.0387435919


