54

 C     1.4509553855     -0.1021521066     4.2297684008
C     0.5933239558     -1.238122392     4.2408005845
C     1.1262358756     -2.2256783491     3.341182768
C     2.4685259308     -0.3743535701     3.275589241
C     2.327687735     -1.718094606     2.7352840925
C     2.5862058762     0.7363466622     2.3405933115
C     0.6992890092     0.9924508459     3.6221180321
C     1.4303263755     1.6278408998     2.5747927001
C     -0.6471444951     -0.8490358016     3.6352356906
C     -0.6401742126     0.5672949598     3.3337523959
C     0.0684807672     -2.7157959486     2.4730856913
C     -1.0800048757     -1.7973956718     2.6294083258
C     0.3814101644     -3.1532965858     1.2178819471
C     2.5955839097     -1.9782834209     1.3428288695
C     1.7296118069     -2.9224999434     0.665151742
C     2.9625793951     0.4675064555     1.0443197562
C     3.0670409181     -0.8902413092     0.5301460829
C     2.478447842     1.3204642863     -0.0372220563
C     0.744060051     2.2077817314     1.490950184
C     1.4505841124     2.2724345973     0.2001429264
C     -1.3052314732     1.0348714615     2.18837699
C     -0.7098224835     2.1027710851     1.4007497879
C     -1.8024232334     -1.350954733     1.5222566928
C     -2.142146996     0.080597028     1.4533787458
C     -0.5810805009     -2.9796284261     0.1232832689
C     -1.6792473078     -2.073132289     0.2217804567
C     1.5727795398     -2.8716975428     -0.725981197
C     0.158950908     -3.0158496834     -1.0766966788
C     2.7829504024     -0.8025994159     -0.8851119694
C     2.502975559     0.5808180404     -1.259829757
C     2.0738313779     -1.8184249507     -1.5369527512
C     1.6598042937     0.9294722348     -2.3447657811
C     0.765391605     2.741291266     -0.9295438124
C     1.000584735     2.1969249476     -2.235078678
C     -1.4002219976     2.5758550915     0.2239668376
C     -0.6452024933     3.1593027507     -0.8589624667
C     -2.7776959798     0.5370954685     0.3214435322
C     -2.6290430016     1.9096862527     -0.1588601662
C     -2.2030063376     -1.4908002628     -0.9879682797
C     -3.0296553009     -0.308498934     -0.847836673
C     -0.1612595516     -2.2055272272     -2.1729938238
C     1.0359160216     -1.4457609722     -2.509993684
C     0.9094643572     -0.1434261543     -3.0303587422
C     -1.4437732037     -1.5880575493     -2.236633024
C     -0.3749191374     0.1730653216     -3.6120563816
C     -1.5520116931     -0.5530842584     -3.2119861419
C     -0.1512622221     2.5067119431     -3.0213731522
C     -1.1493401966     3.1824942188     -2.1735909056
C     -0.7963382562     1.552694786     -3.8260908965
C     -3.1302957482     1.9491235314     -1.4780232818
C     -3.3273380636     0.5383490524     -1.91262508
C     -2.641312674     0.4076108131     -3.1637996853
C     -2.4032955834     2.5900995871     -2.504717219
C     -2.2197508908     1.6714367856     -3.6392167593


