54

 C     1.615480169     -0.2298689299     4.2078337688
C     0.8008373991     -1.3397461726     4.1836246103
C     1.2311626992     -2.2903014685     3.1832169017
C     2.571491599     -0.3697390763     3.1277860843
C     2.3067221057     -1.6704445043     2.4599089786
C     2.4201816517     0.7553357217     2.3118611852
C     0.7603022924     0.9392358378     3.9310516112
C     1.3126241979     1.622037715     2.8488298325
C     -0.5974271021     -0.9520460501     3.9176109694
C     -0.6298452755     0.4943833961     3.8203551263
C     0.0554757615     -2.6356351391     2.4518299876
C     -1.0668688961     -1.736340543     2.8530286422
C     0.1797100831     -2.9405504045     1.1200444062
C     2.3729721798     -1.7834542067     1.0396599067
C     1.4267405885     -2.6694088652     0.4250752682
C     2.6363259694     0.7027792446     0.8899446448
C     2.747795291     -0.6072070149     0.2300935369
C     2.1485096291     1.7882521621     0.1358893964
C     0.4760223973     2.3376001134     1.9238487432
C     1.0213818197     2.6112389796     0.6259272675
C     -1.4243276894     1.045313267     2.8251005864
C     -0.9245316925     2.1315191267     1.9981217508
C     -1.922752956     -1.1747475727     1.8145276709
C     -2.1995044835     0.2061610024     1.9241375664
C     -0.8965474503     -2.6955416016     0.1748173348
C     -1.938223234     -1.7655073539     0.4632768464
C     1.1269189027     -2.6201429996     -0.9713203068
C     -0.3195862794     -2.7748186564     -1.1338718257
C     2.5500360375     -0.6483837367     -1.1680596712
C     1.7753657417     -1.7118498799     -1.8028968743
C     2.0520470112     1.7425639719     -1.2905053099
C     2.2874947491     0.5379819169     -1.9524973598
C     0.2254496008     2.9628615211     -0.4768292343
C     0.9337487233     2.578413105     -1.7044801439
C     -1.7063451574     2.1829242437     0.789260384
C     -2.4827048707     0.9775522978     0.7300690778
C     -1.2154100137     2.7582700841     -0.4141466917
C     -2.5210080837     -1.044497683     -0.6702815906
C     -2.8370633332     0.3884749431     -0.5127209752
C     -0.9704769945     -2.2303760289     -2.2146348839
C     -2.1904851634     -1.474642591     -1.9970814161
C     1.1291525487     -1.2069423849     -2.9984081294
C     1.4899861252     0.1932059632     -3.135693892
C     -0.2052494433     -1.5897760759     -3.2906848543
C     0.2554307344     2.3159686297     -2.8710916687
C     0.578659376     1.1174050557     -3.6717251868
C     -1.9034496272     2.4211249012     -1.6001175684
C     -2.7807769645     1.2638769115     -1.6436412376
C     -1.2065023268     2.4513827629     -2.8797471248
C     -2.3257220399     -0.5945675274     -3.1157461361
C     -1.0724972288     -0.6736475685     -3.9369926045
C     -0.6821242002     0.6409219408     -4.2049385392
C     -2.7096224305     0.7341045136     -2.9911803008
C     -1.7589724374     1.5292947071     -3.7574385997


