54

 C     1.5324572584     -0.0625695716     4.0258043345
C     0.7194461154     -1.2675371185     3.8577417972
C     1.5233148696     -2.2404725717     3.2229512342
C     2.6903224808     -0.2236096352     3.1342686972
C     2.7334832785     -1.5192823116     2.6709467853
C     2.6888206071     0.8477776774     2.1449379753
C     0.8062416288     0.985408937     3.4883003825
C     1.5542767415     1.6638275442     2.4429790845
C     -0.5519231259     -0.9254222444     3.2708029717
C     -0.5361693691     0.530421715     3.1111584094
C     -1.1164547222     -1.7017656805     2.1969802478
C     0.9956063622     -2.9793718913     2.182536036
C     -0.3338753707     -2.8017916937     1.700774305
C     2.8234905565     -1.8159544663     1.2496289596
C     1.8868048375     -2.8417049722     1.0081641818
C     3.004362534     0.6073364059     0.7653428359
C     2.9794768039     -0.7674697441     0.2517566545
C     2.6119668647     1.6576200636     -0.1133016742
C     0.85650751     2.3922711839     1.445752953
C     1.5456459011     2.6025676777     0.2385598033
C     -1.2550644785     1.1729060723     2.1182418986
C     -0.6174603058     2.319372786     1.400822957
C     -2.0511705888     -1.0479121282     1.2747743803
C     -2.2581122255     0.3830450448     1.396370432
C     -2.3596836721     -1.6725333928     -0.0182896701
C     -0.2785720301     -2.9667116972     0.2586284252
C     1.1130284711     -2.8856560321     -0.1579874076
C     -1.2971200235     -2.5272568761     -0.5846784264
C     2.4345855709     -1.0018921075     -1.0848739447
C     1.4744498637     -2.0884855564     -1.281698951
C     2.4809473822     1.4244180175     -1.4892319058
C     2.3068801133     0.120519832     -1.9889292008
C     0.8524640446     2.9964347979     -0.9793598137
C     1.4489272759     2.301487208     -2.0619143657
C     -1.2488254023     2.8460771479     0.2744299463
C     -0.5306773708     3.156930587     -0.9601548076
C     -3.0146705268     1.0607378907     0.4040231558
C     -2.5330883453     2.3456868986     -0.1177914333
C     -3.1925113228     -0.9749789358     -0.942586889
C     -3.5727631354     0.3680805827     -0.6719030921
C     -2.8944237048     -1.0037226776     -2.3666404902
C     -0.9014498605     -2.3440427764     -1.9597415685
C     0.4539264833     -1.9805226118     -2.2668137048
C     -1.7606158478     -1.6069104631     -2.8308460429
C     1.2576057811     0.2171132979     -2.9947942689
C     0.6718360867     1.5777779185     -2.9741833332
C     0.4054445182     -0.8538347994     -3.2018354257
C     -0.9508948411     -0.6077411292     -3.567278483
C     -1.3420632268     2.67750242     -2.0682039363
C     -2.6687041769     2.3941094751     -1.5170715651
C     -3.363176492     1.2069603445     -1.9004367036
C     -2.8848578028     0.4011752204     -2.8906856741
C     -0.7683132141     1.7974148333     -3.0556236682
C     -1.5696787686     0.654171525     -3.4898223976


