54

 C     1.1479678689     -0.0028755512     3.8770756539
C     2.2809941346     -0.2559901836     3.1446085134
C     2.2113032831     -1.6230322981     2.5974681613
C     0.2893367079     -1.2119219118     3.7424737686
C     0.8917014196     -2.1207388326     2.7954704183
C     -0.9807880827     -0.7643518804     3.5218914946
C     0.3283846715     1.1697293057     3.5981949999
C     -1.0257287753     0.7208743859     3.5643715956
C     0.7496315719     2.0585982632     2.5804878744
C     2.6937051741     0.6043320532     2.0525378353
C     1.9562802765     1.7649049563     1.807542734
C     2.8069639614     -1.6254227641     1.3316302068
C     3.1069876282     -0.2458685473     0.9380775932
C     2.2686699569     -2.4974591217     0.3702685233
C     0.1245522066     -2.5804179232     1.6323713037
C     0.8806656048     -2.9166040388     0.4893800909
C     -1.7813070252     -1.2019963733     2.4049626658
C     -1.2582254794     -2.0818970811     1.412563651
C     -1.9370649782     1.1506868564     2.6009708119
C     -2.5764195753     -0.0571791794     2.0363604506
C     -0.21239108     2.5993517561     1.6532832248
C     -1.5836246346     2.2104069975     1.6742243536
C     1.7306751923     2.1828520614     0.4398890491
C     0.4451019821     2.7933856401     0.3615796449
C     2.9653973713     0.1632003849     -0.4123986496
C     2.2925548687     1.4571355875     -0.6762571819
C     2.4971461295     -2.1900314117     -0.9790078854
C     2.8339941367     -0.8816901519     -1.4058604202
C     0.3150302074     -2.9120438106     -0.8686603862
C     1.3643452765     -2.6304375631     -1.7726429031
C     -1.8083037819     -1.9657251815     0.0392853187
C     -1.0017871876     -2.404202849     -1.1270350641
C     -3.1524564872     -0.0008597427     0.7988499659
C     -2.8323813803     -1.00985346     -0.1954168034
C     -2.3184949206     2.2681343294     0.4384240931
C     -3.263526106     1.2738427816     0.1316286167
C     -0.2785516935     2.8522631184     -0.8661087012
C     -1.6915022609     2.6869988415     -0.836668345
C     1.6933142471     1.6690522681     -1.9312611782
C     0.4365538518     2.425762647     -2.0554879244
C     2.1347385949     -0.6449665555     -2.6656671075
C     1.2009340404     -1.7626125379     -2.8772125963
C     1.6975548496     0.6408917558     -2.9678759634
C     -1.2139091156     -1.8232364467     -2.4183723107
C     -0.1076876996     -1.5173432969     -3.3119851297
C     -2.9860254589     -0.3523178835     -1.4894031512
C     -3.2212459943     1.0315101609     -1.2838993848
C     -2.3575945077     1.9937124362     -1.9133421339
C     -2.2109824988     -0.7604182076     -2.602935294
C     -0.2678556075     1.9441308931     -3.1688415009
C     0.4912568039     0.8098458434     -3.7353179935
C     -0.3907124717     -0.2386551748     -3.9123177155
C     -1.649293424     1.594412053     -3.0685168288
C     -1.7278818015     0.2141345534     -3.4933800402


