54

 C     1.5275793001     -0.2746407212     4.0761674803
C     0.7414897997     -1.3906348527     4.0878444593
C     1.2707149196     -2.350764425     3.0934970403
C     2.6264340619     -0.420394743     3.1230024235
C     2.4503066975     -1.7433966518     2.4788188169
C     2.5993902977     0.7047078354     2.3121770593
C     0.7252983936     0.9031313415     3.7295355034
C     1.4146102578     1.5598313159     2.7114893808
C     -0.6130868245     -1.0131790314     3.7282091709
C     -0.617466066     0.4575916795     3.4496471491
C     0.2050932816     -2.6878366317     2.2638123495
C     -0.9679590015     -1.8378287842     2.6692449134
C     0.399511132     -2.9419714958     0.8551243307
C     2.6144725799     -1.8418867739     1.1054650258
C     1.6629165899     -2.5779477774     0.292103405
C     2.9477945813     0.6304571746     0.9011814083
C     3.0161041903     -0.6827422065     0.3045969815
C     2.5548152637     1.7008852307     0.0943429215
C     0.7090623446     2.2708786839     1.7125286595
C     1.4848796565     2.6192711335     0.5539355808
C     -1.3155680729     0.970346835     2.340997193
C     -0.7168035761     2.0593048679     1.5520480451
C     -1.892345472     -1.3894045376     1.6741862493
C     -2.2128817869     0.0405582872     1.6147635678
C     -0.7388921609     -2.8530815213     0.021101571
C     -1.9511110067     -2.1427043811     0.4848771859
C     -0.6415212212     -2.6171956695     -1.3781914497
C     1.7168995448     -2.0621561153     -1.0436814456
C     2.568238442     -0.8751030169     -1.030896982
C     0.6096317682     -2.1505610581     -1.9260495219
C     2.3951734282     1.5560653377     -1.3388008291
C     2.2986962593     0.2337927022     -1.9082854752
C     0.8606380691     3.1259198221     -0.5649677367
C     1.4817750674     2.5547970856     -1.7669305607
C     -1.3553345669     2.4844981348     0.3033090073
C     -0.5532888049     3.0723237115     -0.7327653401
C     -2.8839328734     0.4956790493     0.4844744688
C     -2.5426764392     1.7984640175     -0.1302405613
C     -2.6574386328     -1.668014506     -0.6555993161
C     -1.9079779039     -2.0557387709     -1.853516732
C     -3.2550941694     -0.3980055556     -0.5889152535
C     -1.9395508119     -1.26014673     -2.9900423943
C     0.5425752422     -1.2039706254     -3.0168045144
C     1.3617009568     0.0398900912     -2.9650783525
C     -0.6789944179     -0.904805571     -3.6182588501
C     0.4973808875     2.3266340906     -2.7294942417
C     -0.8013516215     2.7797694087     -2.1469890384
C     0.5455734604     1.1128709953     -3.4672537583
C     -0.7037647341     0.5373254601     -3.8931627099
C     -2.9015666319     1.7566718929     -1.4877918705
C     -3.3252010564     0.3855914626     -1.7950890944
C     -2.7510571634     -0.0468323981     -2.9789793009
C     -1.9825625299     2.1590877612     -2.5215927815
C     -1.9213289275     1.0545991331     -3.4891032374


