54

 C     1.4200571195     -0.0032596408     3.9167843452
C     0.6134589604     -1.1504251635     3.7352343639
C     1.2672429951     -2.0231686956     2.7897711191
C     2.5223618116     -0.0654181744     3.0302326534
C     2.3635265585     -1.2664411248     2.21324488
C     2.6123892769     1.1756258327     2.3313444027
C     0.6289789569     1.1313589887     3.4625401317
C     1.3806882199     1.9369082525     2.5691821493
C     -0.745733863     -0.7364492668     3.4343104639
C     -0.6920419278     0.7168081747     3.127971563
C     -1.5410080291     -1.5654779656     2.6774920434
C     0.4738347309     -2.8115024484     1.9545018263
C     -0.9775044582     -2.7856592478     2.1363771714
C     0.7428902168     -2.9256893296     0.550953835
C     2.5466558978     -1.2431047196     0.7774728971
C     1.6969338014     -2.0698436391     -0.0957145433
C     3.1494426421     1.1754962673     1.0442533076
C     3.0966758243     -0.052528158     0.2146568768
C     2.8128304009     2.2457639723     0.2210738345
C     0.7281256043     2.6111413431     1.4948870048
C     1.614532958     3.0085164355     0.4205389218
C     -1.3458565417     1.242261014     1.9818574291
C     -0.6683146076     2.2866816232     1.1864074498
C     -2.4379236069     -1.0110353967     1.6758192732
C     -2.3754678074     0.3824238355     1.3385020891
C     -1.5975624846     -3.0260661915     0.9064175941
C     -0.5516404149     -3.2129757596     -0.0785465235
C     -2.5613134307     -1.9858043641     0.6266453222
C     -0.7859195318     -2.8360036212     -1.3630429413
C     1.445983846     -1.6563730423     -1.487092484
C     0.2782275636     -2.1896842018     -2.1388448131
C     2.8480408094     0.3399419752     -1.142950229
C     2.8503708947     1.7831796168     -1.1751305448
C     1.9477953438     -0.3847329765     -2.0007002331
C     1.0890921384     3.2309761024     -0.8760034854
C     1.9078111536     2.4740902559     -1.8838993105
C     -1.1717745891     2.554242089     -0.160269239
C     -0.238410568     3.0204371419     -1.1876258656
C     -2.8690395772     0.7404398942     0.0694524878
C     -2.3228815732     1.8711869685     -0.6420996227
C     -2.8666136465     -1.6156471627     -0.7195288435
C     -2.0796504602     -2.2552522313     -1.7711526814
C     -3.2495685457     -0.259129497     -0.930127831
C     -0.36075816     -1.5241548958     -3.1842008091
C     -1.8462960421     -1.6050011703     -2.9879486909
C     1.1476957234     0.3925039734     -2.9776357421
C     1.0419557286     1.8241702985     -2.7788152548
C     -0.2728570566     2.389488038     -2.5396903844
C     -0.0189018336     -0.2030249037     -3.5620359385
C     -2.521304995     1.632300394     -2.0500254662
C     -3.0938077407     0.3486188986     -2.2232538345
C     -2.3583247234     -0.3324776092     -3.2564426635
C     -1.4102909918     1.7573512926     -2.9841450954
C     -1.2668019701     0.5243879188     -3.6910223654


