54

 C     1.4248295293     -0.1085549003     4.0872997297
C     0.6279709503     -1.3168445241     4.0343797652
C     1.403662997     -2.3202252263     3.3918958627
C     2.518178892     -0.3106873282     3.1335835371
C     2.6104853863     -1.6481971801     2.7957675222
C     2.4368361988     0.7041421013     2.0739901632
C     0.6473229534     0.9206656445     3.555382797
C     1.3122153744     1.5324412548     2.4193048733
C     -0.6677618011     -1.0006961337     3.4819426177
C     -0.6960186653     0.4467600452     3.2903103774
C     -1.2470835997     -1.816033392     2.4363328523
C     0.854824869     -3.1072255488     2.3897493922
C     -0.4741196114     -2.9034570799     1.8857962842
C     2.6963675581     -2.0279031854     1.4120204411
C     1.7520534875     -3.0783212019     1.223040085
C     2.6607781654     0.3887481103     0.7060064185
C     2.8295203022     -1.0278542116     0.3619118227
C     2.1248488378     1.3260788591     -0.2966812401
C     0.5801798111     2.2167635788     1.4368406295
C     1.207049746     2.3604366004     0.132364801
C     -1.4535378187     1.0753226749     2.2850336448
C     -0.8732443896     2.1885009215     1.5153281821
C     -2.1416127365     -1.1665699671     1.5299599805
C     -2.3563753145     0.2541573611     1.5495543951
C     -2.2889483178     -1.5625649461     0.1470006051
C     -0.4240600622     -3.0608356687     0.4358313612
C     0.9796092479     -3.1764721304     0.0569778737
C     -1.3260044794     -2.4243181916     -0.4545184927
C     2.3652988514     -1.4145196647     -0.9206688719
C     1.4126330242     -2.4763248973     -1.0684332099
C     2.0668416198     0.9365317068     -1.7102024846
C     2.0865813155     -0.4581968762     -1.9740504995
C     1.3547446498     1.7667461356     -2.6723990812
C     0.4814463032     3.1233332553     -0.837476368
C     0.6571720619     2.9254140988     -2.2194279351
C     -1.6007302979     2.6979186798     0.4142023336
C     -0.9313730173     3.3452610345     -0.6267040087
C     -2.9352165488     0.6728784359     0.2844892385
C     -2.917031135     -0.4854025894     -0.5980268158
C     -2.6856424984     1.9242937376     -0.2275241336
C     -2.7144644813     -0.3180538649     -1.9506098491
C     -0.9035728399     -2.0842303184     -1.8388814854
C     0.4912715786     -2.1031472778     -2.1162059898
C     1.0943424234     -1.0285854452     -2.8664609311
C     -1.7055691342     -1.1630896854     -2.6101392756
C     0.5696612424     1.1831333406     -3.7200682325
C     0.3069344086     -0.2071284369     -3.675853407
C     -1.1293448825     -0.3724775364     -3.6153015521
C     -0.656475091     2.9980616521     -2.9005894185
C     -1.6300536853     3.1495798184     -1.9024924733
C     -2.6326528611     2.1493179649     -1.6798897402
C     -2.6836539186     1.024231563     -2.5530185702
C     -0.7233698013     1.9024883028     -3.7851972204
C     -1.7557547961     0.9547205308     -3.6454763001


