54

 C     1.5465797346     0.0408338936     3.691050095
C     0.743229007     -1.1304289642     3.6287976848
C     1.2868695191     -1.9837576939     2.6116168926
C     2.4952242751     0.0050111385     2.6114531041
C     2.394005469     -1.2629728357     1.9782711672
C     2.4102435729     1.2055783108     1.8281128312
C     0.742836958     1.193099485     3.4874363567
C     1.3928807637     2.0299547771     2.4925850183
C     -0.6163752578     -0.6665265963     3.4267088797
C     -0.6214917655     0.8087823694     3.3184564105
C     -1.4753442325     -1.3758709487     2.6176525312
C     0.4279266109     -2.7914224152     1.7966427003
C     -0.997817301     -2.5609558424     1.9070466313
C     0.9187967494     -3.1637025095     0.5151173769
C     2.6579561642     -1.3753499601     0.5915590844
C     2.1173027157     -2.5548236276     -0.0269414855
C     2.4969951171     1.166895694     0.4072766319
C     2.7931831388     -0.1320028234     -0.2095315669
C     1.7940748604     2.219516157     -0.3703139742
C     0.6061973723     2.8325794567     1.7346571311
C     0.9681694463     3.1305296887     0.3525410059
C     -1.4246298657     1.4796451269     2.3414503079
C     -0.8609529458     2.6895403314     1.7985811847
C     -2.4099410375     -0.6870124574     1.7191428679
C     -2.3524890106     0.7195565533     1.4764265712
C     -1.8487553565     -2.7512514553     0.7880007537
C     -2.7058880956     -1.5878909731     0.6719283259
C     0.0105607882     -3.4135751203     -0.6280814147
C     -1.3587463343     -3.0583048405     -0.4940391263
C     2.0135079941     -2.6185278915     -1.4417124523
C     0.6791206064     -3.1127467122     -1.821851845
C     2.5890417355     -0.2377520254     -1.6112124936
C     2.2818991696     -1.5047325381     -2.1994246583
C     1.4552215398     1.9963627816     -1.7962595174
C     1.845646541     0.7620975536     -2.3566713075
C     0.2728343065     2.6319612896     -2.3905704846
C     -0.2214035961     3.6291422141     -0.2490795815
C     -1.3477410533     3.1909645319     0.6021919526
C     -0.5552679823     3.450112387     -1.5681267445
C     -2.7047428033     1.1913387061     0.1253829087
C     -2.3040244477     2.5270625148     -0.2300723441
C     -1.9232656963     2.8473975717     -1.5762433111
C     -2.7496070965     -1.1785709391     -0.6747571057
C     -1.9457522202     -2.1173067634     -1.4506861666
C     -2.8298692959     0.2125985545     -0.9834864266
C     0.1225506349     -2.222893876     -2.7974989378
C     1.1785007734     -1.3215769166     -3.1659263377
C     0.9656733664     0.0391006608     -3.3069403342
C     -1.2134997784     -1.6727221058     -2.5860498108
C     -0.623248053     1.8480695422     -3.2129358147
C     -1.9353393176     1.8967391775     -2.5703144681
C     -2.3586167172     0.5549061371     -2.2920459531
C     -0.3627784677     0.5129468606     -3.4976489905
C     -1.4594411717     -0.3296446139     -3.011663762


