54

 C     1.633809552     0.0354534015     4.0179330795
C     0.7545969519     -1.1328959271     4.0550196022
C     1.3187944395     -2.1017795748     3.2104955126
C     2.618958036     -0.1834782858     2.9496268781
C     2.5126220963     -1.5033562934     2.5491491154
C     2.5030202331     0.8769664081     1.9449849398
C     0.8684203218     1.1131371307     3.6087843116
C     1.430320569     1.7233364693     2.3938930441
C     -0.6034655226     -0.7039909733     3.8009216981
C     -0.5470501208     0.7540940699     3.6181234941
C     -1.4004025582     -1.4221449336     2.8838788286
C     0.567557547     -2.7242331167     2.174074539
C     -0.8108123447     -2.4678766564     2.0501102498
C     2.4765111058     -1.8136437254     1.1639089798
C     1.3425216201     -2.6761261269     0.936951459
C     2.6648015265     0.6018150729     0.5604831836
C     2.8013352628     -0.809598041     0.1863179689
C     2.0551297951     1.5056956572     -0.4217823469
C     0.5939836716     2.3550245839     1.4583737633
C     1.0333041321     2.4193143428     0.0642137883
C     -1.3672550162     1.3874505735     2.7144714631
C     -0.8295163701     2.3479996341     1.7371232814
C     -2.3808365643     -0.7348976482     2.0617517769
C     -2.4301483761     0.6645059096     2.0373631578
C     -1.4301115409     -2.4171858713     0.7401624151
C     -2.4996856077     -1.4378717318     0.7957230588
C     0.7351334505     -2.7245571737     -0.3434653305
C     -0.7229387803     -2.6134462179     -0.4796678285
C     2.505490731     -1.1726750355     -1.1288408845
C     1.5560834624     -2.2241797983     -1.3897668131
C     2.0961814017     1.159888646     -1.8612606639
C     2.3901547284     -0.2085562072     -2.2085190419
C     1.2476394395     1.8849488797     -2.7839155425
C     0.0937759797     2.9459584988     -0.8784605663
C     0.2802372291     2.769027889     -2.2548529678
C     -1.7549068687     2.4465253879     0.6749729772
C     -2.7336534528     1.360823756     0.8079427008
C     -1.3419422447     2.8538776445     -0.5944671051
C     -2.8908504435     -0.7750609782     -0.3555616238
C     -3.0924994371     0.6706293021     -0.3412893863
C     -1.2724031118     -2.0562775386     -1.7291767655
C     -2.36146755     -1.1359027943     -1.6489739996
C     1.0191698176     -1.9719684137     -2.6730406897
C     1.7101655197     -0.8600661116     -3.2923712892
C     -0.392390243     -1.8852313135     -2.8696731295
C     0.5841325129     1.1949554499     -3.9021868917
C     0.7446262725     -0.1624244672     -4.0365843993
C     -0.5894448062     -0.8135679285     -3.7953150887
C     -1.0360367795     2.4482283186     -2.8527006154
C     -1.9950303171     2.3484806742     -1.7748407894
C     -2.7731764686     1.1730199356     -1.662777613
C     -2.4508199903     0.0379159022     -2.5122092775
C     -0.8697781526     1.4658798832     -3.7916343049
C     -1.561854748     0.1880394326     -3.6134203022


