98 

C -4.33691 .83738 -1.19591
C -4.83829 .30535 .00372
C -4.78690 -1.09963 .27412
C -3.82047 -.08551 -2.20351
C -3.93393 -1.45253 -1.96806
C -4.38111 -1.96854 -.70564
C -2.51292 1.71954 -3.20926
C -2.78767 .35432 -3.14567
C -.52517 -.06216 -4.08151
C -1.78935 -.57201 -3.64590
C -1.90263 -1.98997 -3.30301
C -2.98627 -2.40057 -2.51347
C .58101 -.96398 -4.21055
C -.21071 1.33840 -3.98088
C 1.16389 1.77222 -3.70907
C -1.25687 2.21187 -3.65526
C 1.36474 3.00695 -3.10100
C -1.65396 -4.15402 -1.46718
C -3.56917 -3.12684 -.37316
C -2.85595 -3.47213 -1.56775
C -.61858 -3.89747 -2.40266
C .49050 -2.29631 -3.82653
C -.73229 -2.83749 -3.32411
C -1.05730 -4.34468 -.17704
C -1.63861 -3.85058 .98501
C -2.97373 -3.25358 .89345
C -3.41902 -2.33860 1.94100
C -4.32989 -1.30234 1.63750
C -2.57437 -2.13061 3.04588
C .37905 -4.35143 -.36502
C 1.28019 -3.91715 .66544
C .72745 -3.53515 1.93048
C -.74169 -3.51382 2.10113
C -1.27368 -2.76562 3.13792
C 2.89037 -2.53050 2.50361
C 1.55365 -2.80026 2.85830
C 1.78811 -2.72101 -3.30572
C 1.86215 -3.50553 -2.14583
C .64582 -4.13349 -1.71350
C 2.88832 -3.24473 -1.16036
C 2.59269 -3.48977 .26033
C 3.39835 -2.86331 1.22512
C -2.48850 -.86813 3.67566
C -3.18572 .25155 3.18171
C -4.21138 -.01914 2.24886
C -4.61412 .97376 1.27187
C -4.04658 2.21677 1.30270
C -1.16746 -.72830 4.23398
C .88974 .46390 4.38578
C -.50649 .51637 4.24307
C -1.13160 1.67427 3.58957
C -2.49893 1.55031 3.14904
C -2.99807 2.51770 2.26005
C .94264 -1.93578 3.85882
C -.45261 -1.92452 3.96722
C 1.60831 -.75681 4.27249
C -3.03515 2.65748 -2.21933
C -3.86315 2.21754 -1.17570
C -3.74345 2.89710 .06588
C -2.63621 3.74605 .31483
C -1.75504 4.12235 -.70924
C -2.07049 3.67695 -2.02070
C .26317 3.84275 -2.69776
C -1.01977 3.46458 -2.99066
C 1.46938 4.09028 1.22562
C .10045 4.18818 1.00639
C -.36653 4.42163 -.36324
C .57633 4.42252 -1.40291
C 1.72507 1.53142 3.89245
C 1.16074 2.62159 3.21393
C -.29040 2.70898 3.04079
C -.79785 3.57123 1.99840
C -2.15021 3.47875 1.66731
C 2.00679 3.29447 2.30670
C 3.41830 3.07211 .47192
C 2.41311 4.03111 .14404
C 1.96104 4.13821 -1.15587
C 3.87311 2.13445 -.46223
C 3.34128 2.19859 -1.81846
C 2.43879 3.21468 -2.14267
C 2.97878 .97711 3.50394
C 4.32939 .54205 1.46680
C 3.66175 1.47211 2.37141
C 3.21805 2.70737 1.86422
C 4.60322 -.16253 -.86717
C 4.42612 .87483 .04672
C 4.56147 -1.53935 -.46294
C 4.38194 -1.85464 .85886
C 4.36186 -.81437 1.84050
C 3.56731 -1.31477 2.94327
C 2.92599 -.43888 3.77752
C 2.69203 -1.63608 -3.50789
C 3.73451 -1.43328 -2.61734
C 3.88578 -2.30620 -1.48733
C 3.33111 1.00506 -2.65725
C 2.23401 .78535 -3.59066
C 1.95065 -.51898 -3.99596
C 4.06947 -.09659 -2.21868
