98 

C 4.93578 1.57938 .94704
C 4.15679 2.79691 .91875
C 5.21851 .90862 -.24651
C 3.80044 3.36521 -.29454
C 2.54163 4.05355 -.40351
C 1.66755 4.14451 .70111
C .34678 4.51086 .41201
C -2.04583 1.65201 -3.41025
C -1.46586 2.71672 -2.73561
C -.01922 2.83238 -2.77511
C .60559 3.81053 -1.91039
C 1.98444 3.75622 -1.68880
C -.16610 4.43698 -.90504
C 4.93323 -1.25925 .86724
C 4.52538 -.56141 2.07142
C 5.15045 -.53720 -.29237
C 4.47688 .81423 2.08873
C 3.31612 1.46434 2.64677
C -.16896 -.84495 3.53423
C -.27331 .60175 3.45797
C 2.20325 .74563 3.12005
C 2.30017 -.70361 3.17166
C 3.46727 -1.31351 2.68789
C .77381 2.69502 2.55883
C .91365 1.39618 3.13556
C -2.98220 2.88297 2.23760
C -1.72434 2.53347 2.78530
C -1.56418 1.21369 3.37789
C -2.72304 .39311 3.46106
C 1.89974 3.30223 1.86512
C 3.15478 2.70830 1.97328
C -.55681 3.24817 2.33288
C -.72068 4.23027 1.33799
C 2.60270 -3.91181 -.30222
C 3.62437 -2.94346 -.40998
C 4.18432 -2.48856 .80300
C 3.39414 -2.57384 1.99538
C 2.24143 -3.34707 2.04486
C 2.00198 -4.21129 .93125
C -.34612 -4.43473 1.51232
C .66746 -4.69949 .64594
C 1.09703 -1.50693 3.28374
C 1.11860 -2.86096 2.82476
C -2.61653 -.99942 3.41718
C -1.36277 -1.63153 3.47262
C -1.31948 -2.96760 2.97387
C -.11342 -3.56309 2.66181
C 3.62885 -2.05246 -1.56987
C 4.42877 -.91599 -1.49991
C 1.61043 -4.07964 -1.35565
C 1.56105 -3.15963 -2.44049
C 2.50806 -2.05433 -2.50205
C .33924 -3.04693 -3.10053
C -.86781 -3.59624 -2.54188
C -.85651 -4.21897 -1.29343
C .43026 -4.58314 -.78364
C -.00233 -1.85952 -3.82781
C .79770 -.71689 -3.74962
C 2.11728 -.83734 -3.14448
C 2.86621 .37570 -2.90659
C 4.07415 .28026 -2.20145
C 4.63817 1.39544 -1.48044
C 2.20266 1.67474 -2.97628
C 2.79848 2.75172 -2.31497
C 3.98653 2.60816 -1.51468
C -1.43898 -1.78959 -3.86707
C .13952 .58588 -3.82263
C .78063 1.75639 -3.29225
C -2.05286 -.57302 -3.99323
C -1.25418 .62159 -3.99019
C -1.69286 -4.17818 1.02267
C -1.95759 -3.96311 -.37624
C -3.02867 -2.48761 -2.08531
C -1.96998 -2.77904 -2.94952
C -3.83651 -2.47190 .30285
C -3.02383 -3.08639 -.74565
C -4.68867 -1.38700 -.02833
C -4.60600 -.74436 -1.32839
C -3.77367 -1.25232 -2.33431
C -3.27846 -.31381 -3.27944
C -4.53432 -.45771 2.22443
C -3.70924 -1.53402 2.58627
C -3.43362 -2.58643 1.67303
C -2.32299 -3.40949 1.98889
C -5.05955 -.40306 .91877
C -4.68145 2.02384 .84805
C -4.08398 1.94961 2.18189
C -3.97638 .74489 2.82312
C -5.12963 .87746 .23010
C -1.92815 4.29537 .57829
C -3.93517 3.01007 .09574
C -3.05443 3.65683 1.03297
C -3.31620 1.07461 -2.99691
C -4.80774 .65297 -1.15962
C -4.02209 1.58032 -1.89088
C -3.51672 2.77435 -1.22755
C -2.25921 3.37275 -1.68347
C -1.58866 4.23247 -.81591
