98 

C 2.03241 3.75012 1.62665
C 2.66687 3.74946 .33549
C 3.91149 3.08318 .22896
C 4.37978 2.58377 -1.00929
C 3.58073 2.72080 -2.15268
C .66003 3.91715 1.75508
C -.18654 4.09737 .61585
C .38800 4.00827 -.67821
C 1.82978 3.86435 -.82766
C 2.31833 3.35858 -2.05448
C -1.83663 3.61482 -1.59296
C -.47101 3.59173 -1.77104
C -3.32735 2.59194 1.96767
C -2.05428 3.13815 1.97936
C -1.59930 3.88131 .81266
C -2.42618 3.89518 -.31899
C 4.96412 .28812 -1.64696
C 4.12822 .42776 -2.83431
C 5.06542 1.32778 -.75341
C 3.44166 1.59634 -3.06514
C 2.06373 1.52728 -3.49115
C -.07452 -2.12046 -3.01887
C -.80509 -.93152 -3.34313
C 1.36189 .31072 -3.61579
C 2.10492 -.92096 -3.40818
C 3.47397 -.83493 -3.07427
C -.73828 1.55837 -3.21926
C -.07539 .33002 -3.51238
C -4.22121 .36607 -2.40803
C -2.93524 .36743 -2.99860
C -2.22946 -.89864 -3.15120
C -2.87519 -2.06624 -2.68821
C .04369 2.69310 -2.79202
C 1.41272 2.66686 -2.96549
C -2.17088 1.58637 -2.96964
C -2.70888 2.70723 -2.31362
C 3.37642 -2.91609 -1.82663
C 4.82830 -1.07790 -1.16900
C 4.06768 -1.78120 -2.16773
C -.73635 -3.17540 -2.29600
C 1.38146 -2.12183 -3.05012
C 2.06381 -3.13628 -2.36319
C -2.11728 -3.12887 -2.15533
C 3.41960 -3.40399 -.47535
C 3.94152 -2.60225 .55661
C 4.68055 -1.38800 .19436
C 4.78843 -.28096 1.15782
C 4.98526 1.05305 .66833
C 4.16470 -.40858 2.40628
C 2.22490 -4.20018 -.29401
C 1.64334 -4.30784 .95611
C 2.17397 -3.51850 2.04299
C 3.29351 -2.68985 1.86651
C 3.39346 -1.58434 2.75101
C -.00501 -3.98587 -1.33147
C 1.37806 -4.00614 -1.43525
C .22128 -4.35064 1.07573
C -.60967 -4.25567 -.04330
C 3.55264 .70895 3.05747
C 3.59348 1.99442 2.47027
C 4.35736 2.15758 1.27979
C 2.47611 2.83551 2.67294
C 1.05921 -3.09556 2.84974
C 1.04684 -1.84275 3.47677
C 2.30000 -1.17846 3.53767
C 2.36976 .24490 3.71156
C 1.19607 1.01609 3.76211
C 1.32750 2.36912 3.35948
C -3.58711 1.30363 2.59216
C .20324 3.07334 2.85193
C -1.39579 -1.69402 3.10882
C -.18929 -1.08661 3.55437
C -.11613 .37642 3.68709
C -1.06611 2.53164 2.87073
C -1.24826 1.16442 3.35167
C -2.53151 .52766 3.11833
C -.13409 -3.62682 2.28651
C -1.34789 -2.97256 2.41235
C -3.73321 -1.46874 2.36610
C -2.60633 -.90137 3.00037
C -4.02859 -2.94329 -.83943
C -2.78325 -3.61945 -.94806
C -1.99854 -3.89765 .18033
C -4.48173 -2.52995 .41808
C -3.60123 -2.65520 1.53406
C -2.38312 -3.32256 1.44617
C -5.41684 -.47453 -.55344
C -4.78598 -.82965 -1.81702
C -4.12346 -2.02281 -1.95713
C -5.20568 -1.28104 .55953
C -3.93000 2.63106 -1.57802
C -5.35070 .97101 -.43444
C -4.68957 1.47589 -1.63218
C -4.76768 -.67002 1.80516
C -4.69457 .71549 1.91758
C -5.06417 1.56012 .79239
C -4.22314 2.74133 .85121
C -3.74221 3.32358 -.31262
