98 

C -3.29358 -3.13717 1.15283
C -3.23409 -2.30103 2.27647
C -4.08877 -1.16803 2.25528
C -3.77979 .00848 3.03266
C -2.67799 .01253 3.83848
C -2.15853 -3.95774 .78370
C .20354 -4.32063 .83830
C -.95178 -3.91318 1.52274
C -.82025 -3.01989 2.65977
C -2.00520 -2.26646 3.07977
C -1.82783 -1.16103 3.91458
C -3.29543 3.13768 1.12495
C -3.23553 2.31139 2.25580
C -4.08971 1.17785 2.24482
C -1.82805 1.18697 3.90374
C -2.00640 2.28472 3.05896
C -.82225 3.03532 2.63249
C -.95427 3.91910 1.48811
C -2.16110 3.95622 .74886
C .20075 4.32191 .80049
C -.52638 .73755 4.26016
C 1.83305 .71754 3.90147
C .61487 1.44774 3.88270
C .49042 2.61207 3.03502
C 1.68046 3.04034 2.28256
C 1.50250 3.91227 1.22124
C 1.50500 -3.90657 1.25569
C 1.68293 -3.02576 2.30988
C .49232 -2.59224 3.05872
C .61576 -1.42077 3.89633
C -.52631 -.70776 4.26692
C 1.83340 -.68963 3.90795
C -4.68714 .72780 1.03948
C -3.98134 2.74227 -.05422
C -4.55442 1.45019 -.16113
C -3.29594 3.35276 -1.16897
C -3.19158 2.67247 -2.35259
C -2.15279 4.07634 -.65982
C -.92523 4.11218 -1.37310
C .21100 4.41895 -.62039
C -3.83484 1.38362 -2.50726
C -4.44743 .71955 -1.42644
C -4.44707 -.74207 -1.42010
C -3.05916 .66515 -3.47292
C -3.05888 -.70392 -3.46696
C -3.83430 -1.41486 -2.49507
C -1.81990 1.37887 -3.71622
C 1.87123 .70883 -3.53957
C 3.02453 1.37404 -3.10422
C .60861 1.44001 -3.53900
C -.59286 .71426 -3.85161
C -.59267 -.75352 -3.84515
C -1.81907 -1.41827 -3.70371
C -.77236 3.27848 -2.57051
C -1.91214 2.63365 -3.05415
C 1.53165 4.07544 -1.08553
C 1.69727 3.26809 -2.24264
C .52248 2.72807 -2.91442
C 2.91969 2.61028 -2.36883
C -4.55352 -1.46183 -.14823
C -4.68676 -.72906 1.04602
C -3.19022 -2.70190 -2.32906
C -3.29405 -3.37217 -1.13932
C -3.97989 -2.75259 -.02972
C .21339 -4.42988 -.58173
C -2.15027 -4.09002 -.62391
C -.92278 -4.13061 -1.33696
C -1.91089 -2.66757 -3.03108
C .52331 -2.75852 -2.89061
C -.77064 -3.30720 -2.54160
C 2.92010 -2.63527 -2.34558
C 1.69828 -3.29234 -2.21409
C 1.53361 -4.08945 -1.04983
C 1.87138 -.74429 -3.53319
C .60907 -1.47586 -3.52616
C 3.02477 -1.40569 -3.09205
C 4.68501 -1.42544 -1.45070
C 3.87505 -2.60469 -1.27689
C 3.49271 -3.04567 .00822
C 2.35144 -3.87140 .07604
C 5.11957 -.73106 -.33822
C 4.68481 1.40860 -1.46348
C 4.17351 .67762 -2.60774
C 4.17369 -.70494 -2.60167
C 5.11928 .72443 -.34479
C 2.34943 3.86759 .04212
C 3.49138 3.04167 -.01890
C 3.87463 2.58941 -1.30012
C 3.78617 .01066 2.88911
C 2.99964 1.17191 3.18074
C 2.93123 2.25322 2.30585
C 4.63021 .00624 1.80354
C 4.72046 1.17640 .97406
C 3.84297 2.26254 1.15714
C 3.84444 -2.25640 1.17764
C 2.93322 -2.23772 2.32634
C 3.00083 -1.14879 3.19154
C 4.72145 -1.17130 .98469
