98 

C -4.11504 1.27902 1.46474
C -4.80289 .29823 .73823
C -4.86339 -1.05945 1.17095
C -3.44055 .89509 2.68804
C -3.46044 -.45481 3.06734
C -4.16330 -1.43813 2.31575
C -.92784 3.66568 2.69167
C -2.19710 2.99852 2.66269
C -2.36494 1.72614 3.21554
C .12330 3.10151 3.37246
C -.06068 1.85039 4.03952
C -1.23612 1.11147 3.90047
C -.68559 4.28147 1.41779
C .54538 4.11507 .74888
C .54384 4.12252 -.70480
C -4.09387 -3.07220 -.00944
C -3.29878 -3.41754 1.15592
C -4.86354 -1.91489 -.00330
C -3.36007 -2.64758 2.29947
C -2.15185 -2.39095 3.04446
C 1.57571 -2.68987 2.65637
C 2.72227 -2.00447 3.06508
C .27888 -2.24949 3.16158
C -.90162 -2.89256 2.65202
C -.83115 -3.65930 1.41374
C -2.01051 -3.89409 .70349
C -1.12699 -.34886 3.93112
C -2.25371 -1.08085 3.59470
C 1.23199 1.20950 4.09720
C 1.35212 -.19531 4.04619
C .16348 -1.00200 3.85013
C 2.60295 -.70398 3.67503
C -4.16566 -1.41523 -2.31843
C -3.36253 -2.62471 -2.31490
C -4.86449 -1.04783 -1.16922
C -3.29989 -3.40573 -1.17908
C -2.01132 -3.88695 -.73285
C 1.63590 -3.42721 -1.44579
C 2.83902 -3.46500 -.73779
C .41657 -3.72853 -.72730
C -.83295 -3.64508 -1.44251
C -.90504 -2.86608 -2.67314
C -2.15545 -2.36057 -3.05907
C 1.63820 -3.44182 1.41442
C .41751 -3.73575 .69559
C 2.84012 -3.47248 .70333
C -4.11651 1.29344 -1.44138
C -3.44317 .92185 -2.66920
C -4.80362 .30565 -.72354
C -3.46367 -.42429 -3.06139
C -1.24088 1.15044 -3.88354
C -2.36865 1.75811 -3.19054
C -2.20094 3.02521 -2.62568
C -.06601 1.89112 -4.01731
C .11833 3.13563 -3.33786
C -.93240 3.69305 -2.65009
C -2.25798 -1.04514 -3.59667
C .15805 -.96359 -3.85526
C -1.13191 -.30964 -3.92814
C 2.59713 -.66660 -3.68164
C 1.34613 -.15465 -4.04580
C 1.22628 1.25061 -4.08281
C 1.57175 -2.66293 -2.68006
C .27444 -2.21779 -3.17865
C 2.71736 -1.97324 -3.08453
C -2.84473 3.37613 -1.37390
C -3.68361 2.48014 -.71119
C -3.68277 2.47294 .74560
C -1.94317 4.23480 -.66122
C -1.94194 4.22774 .71020
C -2.84298 3.36230 1.41575
C -.68856 4.29589 -1.37027
C 4.47633 -.64438 -2.32385
C 3.61136 .17559 -3.13614
C 3.27657 1.49459 -2.74915
C 2.14963 2.05201 -3.36534
C 5.01193 -.11803 -1.16530
C 4.72237 -2.27084 -.01318
C 4.01482 -2.76044 -1.17880
C 3.93658 -1.98859 -2.32341
C 5.20977 -.96242 -.00690
C 4.48007 -.66839 2.31437
C 3.94019 -2.01233 2.30139
C 4.01688 -2.77265 1.14882
C 5.01379 -.13024 1.16042
C 2.15466 2.01776 3.38658
C 3.28082 1.46638 2.76316
C 3.61629 .14345 3.13619
C 1.43501 3.14974 -2.76254
C 1.64981 3.50911 -1.42631
C 3.64325 1.97355 -1.42176
C 2.76713 2.87791 -.70192
C 2.76853 2.87056 .73089
C 1.65235 3.49438 1.46295
C 1.43923 3.12140 2.79563
C 4.56289 1.19178 -.70177
C 4.56412 1.18439 .71113
C 3.64566 1.95879 1.44024
