98 

C -4.56333 -1.06469 1.95598
C -3.85079 -.34618 2.99767
C -5.08721 -.38402 .87562
C -3.73070 1.02584 2.93266
C -2.47007 1.63261 3.26466
C 1.12846 .67561 3.72743
C 2.38411 1.23629 3.48347
C -.04868 1.49864 3.50357
C -1.34488 .88110 3.63246
C -1.46576 -.57104 3.67157
C -2.70838 -1.13501 3.37935
C -1.08182 3.32900 2.17159
C -2.32163 2.79391 2.44411
C 1.51087 4.11167 1.33459
C 1.39012 3.23582 2.45734
C .07633 2.75741 2.83934
C 2.51640 2.49579 2.81071
C -2.68374 -3.79406 .28043
C -3.72480 -2.85603 .44996
C -3.88182 -2.31819 1.74376
C -2.79499 -2.38920 2.67492
C -.35866 -2.67345 2.87398
C -1.64887 -3.13756 2.39950
C -1.70431 -3.99657 1.27487
C 2.06122 -2.73595 2.65431
C .83598 -3.28238 2.31487
C 1.00931 -.77810 3.70588
C -.27388 -1.39966 3.52048
C 2.15421 -1.53347 3.41044
C -4.16017 -2.08294 -.70773
C -4.90384 -.91206 -.46484
C -4.83117 .21256 -1.35061
C -3.39051 -2.17790 -1.94417
C -3.40817 -1.09792 -2.82499
C -4.11699 .10555 -2.52332
C -.77481 -4.58533 -.76816
C -2.06193 -4.01818 -1.01534
C -2.26491 -3.10625 -2.05573
C .24917 -4.39584 -1.67613
C .05470 -3.47541 -2.75832
C -1.13324 -2.77413 -2.91419
C 1.59794 -4.27694 -1.21455
C .76916 -4.10760 1.09657
C -.49247 -4.46483 .63245
C 3.22735 -2.81667 1.77818
C 3.12415 -3.39770 .50245
C 1.88242 -4.09341 .14869
C 3.93927 -2.84831 -.52027
C -2.08636 3.19548 -2.47516
C -3.22381 2.39607 -2.22774
C -3.33882 1.22622 -2.99591
C -1.05168 -1.45732 -3.54187
C -2.22042 -.71948 -3.57658
C -2.19299 .70045 -3.68055
C .23188 -.76647 -3.68237
C -.97366 1.39037 -3.71519
C -1.01395 2.73145 -3.25917
C -3.85742 2.46709 -.91058
C -4.74491 1.43337 -.55742
C -4.97045 1.06593 .80671
C -3.18207 3.19819 .15221
C -3.41726 2.81890 1.47633
C -4.30781 1.75499 1.81533
C -.17521 4.31265 -1.80169
C -1.54532 4.07886 -1.45483
C -1.94740 3.94229 -.12616
C .74399 4.62480 -.80269
C .33916 4.50478 .56999
C -.93603 4.08957 .92280
C 1.33650 -2.87319 -3.06802
C 1.45008 -1.51697 -3.42939
C .27568 .65662 -3.69989
C 1.51326 1.36660 -3.32219
C 1.43476 2.74954 -2.83404
C .18876 3.40101 -2.82847
C 2.67808 -.82925 -3.13343
C 2.68951 .62599 -3.07117
C 3.76904 1.25108 -2.34517
C 3.60733 2.47791 -1.71688
C 2.43982 3.26057 -1.93624
C 2.07763 4.17911 -.91746
C 3.45337 -2.82237 -1.89793
C 2.29921 -3.49266 -2.22149
C 4.61386 -.88348 -1.54603
C 3.70110 -1.54224 -2.45868
C 4.66655 .47273 -1.51098
C 4.03562 -1.67636 2.01369
C 4.69703 -1.01025 .95033
C 4.67944 -1.65848 -.30775
C 4.27679 1.14127 2.09733
C 3.52977 .44038 3.12723
C 3.41509 -.92351 3.08848
C 4.85925 1.17201 -.25223
C 4.80861 .45542 .99191
C 2.58702 3.98822 .44774
C 4.26881 2.43298 -.39960
C 3.66636 3.09273 .71206
C 3.67933 2.43590 1.95412
