98 

C -3.12666 -2.01121 2.49718
C -4.10137 -1.86382 1.49668
C -4.60807 -.57265 1.14002
C -2.68234 -.81696 3.22190
C -3.34728 .37757 2.98796
C -4.31209 .51188 1.92420
C .80639 -1.93242 3.86859
C -.58883 -1.93135 3.81975
C -1.32457 -.73263 3.76026
C 1.54651 -.72690 3.81686
C .83323 .51910 3.82209
C -.61366 .51591 3.81409
C -1.33338 1.74627 3.48547
C -2.68925 1.64946 3.15232
C 2.89822 1.63512 3.07552
C 1.55327 1.74214 3.45400
C 3.54573 .36124 2.92288
C 2.90633 -.81302 3.28759
C 3.32807 -2.01839 2.61692
C -2.60317 3.64438 1.77299
C -4.15359 1.80740 1.32290
C -3.30664 2.56362 2.22675
C -.61587 2.93990 3.07304
C -1.29195 3.89837 2.28720
C .83197 2.93133 3.04061
C -2.62908 3.96627 .35601
C -3.28765 3.10817 -.55924
C -4.04861 1.95917 -.06613
C -4.20039 .76365 -.91623
C -4.57443 -.43590 -.30295
C -2.76702 3.05917 -1.86127
C .75675 4.58531 1.19482
C -.60279 4.63023 1.25700
C -1.38171 4.56491 .03254
C -.75000 4.31392 -1.20930
C -1.53541 3.67484 -2.18352
C 1.48481 3.86079 2.19930
C -2.92075 1.87862 -2.70173
C -3.53914 .67771 -2.20434
C -3.45010 -1.80175 -2.02025
C -4.21002 -1.70116 -.85142
C -4.03588 -2.62642 .26600
C -3.17103 -3.67821 .15972
C -2.05475 -.61521 -3.74987
C -3.12620 -.58067 -2.74231
C -1.35340 -1.82115 -3.95302
C -1.57147 -2.96782 -3.09578
C -2.61412 -2.99532 -2.17329
C -2.45841 -3.89097 -1.08019
C -1.85872 1.84118 -3.58809
C -.04952 .57894 -4.54793
C -1.39272 .60445 -4.13388
C 1.43202 4.40915 -.08935
C .70541 4.14572 -1.26783
C 1.30520 3.29663 -2.26425
C .43997 2.74432 -3.31535
C -.93031 2.91974 -3.24138
C .88752 1.61137 -4.09349
C -1.02962 -3.13813 3.11690
C -2.23796 -3.16231 2.40387
C -2.28656 -3.99302 1.25656
C -1.08709 -4.49944 .68993
C .14904 -4.34652 1.32598
C .11507 -3.82089 2.64729
C 2.44269 -3.16130 2.52616
C 1.26382 -3.15297 3.20818
C -.30864 -3.55866 -2.80168
C -.05493 -4.13673 -1.55311
C -1.18979 -4.41911 -.75668
C 1.25098 -3.94472 -.92577
C 1.35309 -4.14857 .50604
C 2.49328 -3.67286 1.16461
C .70302 -2.81462 -3.50375
C 1.94421 -2.56474 -2.92354
C 2.25474 -3.18126 -1.61924
C 4.11046 -1.51158 -1.37564
C 3.38762 -2.67673 -.88636
C 3.49065 -2.94187 .48272
C 1.99108 -.41383 -4.13693
C .66576 -.64049 -4.62133
C .02384 -1.83436 -4.31666
C 3.70668 -.84689 -2.51540
C 2.63986 -1.35291 -3.33774
C 2.66770 3.78795 .16863
C 3.24745 2.88814 -.74732
C 2.58198 2.67200 -2.00606
C 3.87773 .58870 -2.29773
C 2.98214 1.50931 -2.81110
C 2.10864 1.01907 -3.85152
C 4.28954 1.72224 1.18899
C 3.47725 2.50866 2.09248
C 2.75269 3.56103 1.61111
C 4.47584 .75606 -1.00395
C 4.17608 1.88791 -.20818
C 4.05499 -1.95656 1.42343
C 4.65860 -.52146 -.44748
C 4.57898 -.71629 .95367
C 4.41160 .42099 1.76628
