98 

C -3.76609 3.38880 -.72294
C -3.69547 2.38469 -1.85100
C -4.68987 1.24103 -1.84775
C -4.40181 .00291 -2.69050
C -3.22247 .00026 -3.63061
C -2.59601 4.33479 -.45703
C -1.30062 4.13139 -1.21996
C -1.24295 3.14057 -2.35863
C -2.45550 2.30852 -2.71278
C -2.35580 1.24420 -3.79130
C 1.29167 3.63850 -2.68146
C .08182 2.82557 -3.00820
C 1.25742 4.56092 -1.46607
C -.02592 4.71310 -.67744
C .05247 5.11578 .78795
C 1.28286 -3.62908 -2.64401
C .07373 -2.82387 -2.98416
C -2.35746 -1.24514 -3.78365
C -2.46421 -2.31102 -2.70605
C -.96540 -.76737 -4.20344
C 1.53190 -.75272 -3.48498
C .24690 -1.48719 -3.65785
C 4.04229 -.76551 -2.75186
C 2.77829 -1.51667 -3.11137
C 2.66339 -2.97398 -2.71105
C .25322 1.48857 -3.68108
C -.96429 .76220 -4.20908
C 2.67004 2.97545 -2.73171
C 2.78257 1.51627 -3.12486
C 1.53527 .75310 -3.49762
C 4.04328 .76316 -2.75574
C -1.25985 -3.15664 -2.35670
C -3.70470 -2.38160 -1.84603
C -4.69340 -1.23249 -1.84444
C -1.32521 -4.17306 -1.23484
C -2.61899 -4.34540 -.45286
C -3.77951 -3.38377 -.71637
C 1.24659 -4.52445 -1.41162
C -.01794 -4.62355 -.60989
C .04836 -4.85819 .72656
C -1.11739 -4.68339 1.64247
C -2.48988 -4.46892 1.06507
C 2.59424 -4.41415 -.69839
C 3.57794 -3.40837 1.51037
C 2.57871 -4.29854 .80963
C 1.30799 -4.67803 1.53613
C 4.82246 -1.22926 -1.52399
C 4.37991 -2.47896 -.79394
C 3.46762 -3.45588 -1.50493
C 4.57361 -2.57975 .70490
C -4.30990 -2.90160 .63042
C -4.86461 -1.50163 .75816
C -5.24297 -.75413 -.50075
C -4.67975 -.75199 2.06061
C -3.58750 -1.21360 3.02161
C -2.83196 -2.48868 2.72336
C -3.43367 -3.47613 1.73663
C -4.68384 .77243 2.06027
C -4.86370 1.51892 .75468
C -5.24098 .76787 -.50280
C -4.30806 2.91867 .62283
C -3.59876 1.24037 3.02789
C -2.83220 2.50285 2.71072
C -3.43701 3.49866 1.73250
C -1.09452 4.65632 1.63592
C -2.47355 4.47744 1.05711
C -.63441 -3.88089 2.84592
C -1.35989 -2.56787 3.07004
C -.58339 -1.28431 3.24379
C -1.32894 .02581 3.39158
C -2.84078 .01590 3.54347
C -.60401 1.31444 3.20973
C -1.34421 2.54611 2.98088
C -.61771 3.80463 2.69520
C .88809 -3.88026 2.77996
C 1.65521 -2.60677 3.07329
C .90875 -1.29480 3.15647
C 3.17285 .00949 3.01353
C 1.66443 .01070 3.10457
C .90976 1.31772 3.16474
C 3.90368 1.29883 2.70347
C 3.13669 2.61638 2.71165
C 1.66321 2.62326 3.05269
C .89299 3.89053 2.75856
C 3.90102 -1.28225 2.71076
C 3.13067 -2.59881 2.72568
C 5.26688 .00201 -.74012
C 4.82047 1.30667 1.48197
C 5.09982 .00446 .76394
C 4.81947 -1.29429 1.48902
C 3.46449 3.45618 -1.52024
C 4.57316 2.58999 .69185
C 4.37928 2.48357 -.80587
C 4.82269 1.23085 -1.52949
C 1.32197 4.71501 1.54702
C 3.57685 3.42288 1.49185
C 2.56484 4.30193 .78799
C 2.58402 4.41207 -.72079
