98 

C 3.49482 -2.57802 -.54857
C 4.34856 -1.44988 -.82728
C 1.26382 -4.23875 -.05134
C 1.88758 -3.63594 1.03157
C 3.06603 -2.80335 .79154
C 3.50927 -1.89121 1.84496
C 2.81386 -1.89469 3.06887
C -.34517 -3.70021 2.21993
C 1.09711 -3.48786 2.25388
C 1.62565 -2.69902 3.27240
C -1.13947 -3.07751 3.18340
C -.57695 -2.17274 4.14010
C .78119 -1.99016 4.18569
C -.99357 -4.10849 .98129
C -2.33668 -3.64281 .67258
C -.16567 -4.51229 -.06800
C -2.74945 -3.62800 -.66187
C 4.26568 -.71077 1.51244
C 4.68015 -.52826 .15271
C 2.65049 -.70262 3.83386
C 3.23872 .47277 3.40794
C 4.12425 .45352 2.30512
C 1.31380 -.66322 4.36882
C 4.05250 1.77562 1.68485
C 4.33426 1.95295 .30807
C 4.72237 .81138 -.45376
C 3.65788 2.98853 -.36463
C 3.00523 2.49437 2.30510
C .78085 3.51798 1.93163
C 2.20056 3.40370 1.58559
C 2.64403 3.74728 .29596
C -1.47042 4.10797 1.18161
C -.09304 4.18468 .98086
C -1.45062 -1.03549 4.28176
C -.94871 .27654 4.19751
C .49551 .47107 4.21887
C 1.07806 1.68070 3.62815
C 2.44153 1.67594 3.34674
C -1.80822 1.31587 3.64852
C -1.21291 2.51821 3.05044
C .22415 2.66577 2.94510
C -2.02182 3.30518 2.21846
C 3.26663 2.83304 -1.73926
C 3.49039 1.64784 -2.43230
C 4.36318 .69519 -1.80351
C 4.24197 -.71779 -2.08743
C 3.38922 -1.14047 -3.05861
C 2.05880 3.59163 -1.94250
C -.21421 3.70200 -2.64366
C 1.05921 3.15889 -2.84429
C 1.20556 1.86400 -3.51590
C 2.45503 1.16352 -3.36371
C 2.49469 -.19505 -3.71475
C .36993 4.46004 -.38099
C 1.70723 4.18544 -.70989
C -.54726 4.40888 -1.45090
C 1.67428 -3.97733 -1.39803
C 2.74357 -3.12215 -1.66480
C 2.68429 -2.39873 -2.90248
C 1.47350 -2.28740 -3.60154
C .33964 -3.06298 -3.25389
C .51683 -4.02586 -2.24479
C -1.86702 -4.00211 -1.72188
C -.59594 -4.44707 -1.42540
C -2.34316 -.49338 -3.82292
C -1.11827 -1.12844 -3.98301
C -.99007 -2.51263 -3.50881
C -2.07478 -3.09647 -2.83687
C -1.39467 3.01607 -3.10869
C -1.29123 1.76304 -3.72963
C .02242 1.14905 -3.93048
C .07968 -.27882 -4.13720
C 1.32696 -.90296 -4.06208
C -2.43516 .94059 -3.66014
C -4.01957 -.04842 -2.27430
C -3.41179 -1.07547 -3.05630
C -3.25770 -2.34072 -2.53039
C -4.33922 -.24356 -.92603
C -4.11738 -1.56545 -.35033
C -3.63241 -2.58678 -1.17176
C -2.47082 3.32694 -2.22821
C -3.93989 2.24076 -.54782
C -3.44494 2.35429 -1.91603
C -3.47938 1.21675 -2.74367
C -4.38844 .71818 1.32105
C -4.38104 .93785 -.05572
C -3.82404 1.66961 2.23688
C -3.32562 2.85496 1.76620
C -3.48626 3.19289 .38645
C -2.41614 4.11617 .07213
C -1.95588 4.21759 -1.21386
C -2.68374 -1.40227 3.63366
C -3.50909 -.41863 3.14765
C -3.11645 .96195 3.27470
C -3.91787 -1.71414 1.08861
C -3.02935 -2.75267 1.59864
C -2.47454 -2.59517 2.86907
C -4.17287 -.60126 1.89066
