98 

C 2.50636 -3.47143 -.80652
C 3.60936 -2.83590 -.22262
C 4.21272 -1.69933 -.82039
C -.09805 -4.23476 -1.70295
C .71448 -3.43772 -2.55024
C 2.03618 -2.99736 -2.09508
C 2.63654 -1.83394 -2.69146
C 3.72196 -1.15114 -2.01186
C 1.90407 -1.09995 -3.72749
C 2.19174 .26271 -3.96751
C .03200 -2.68995 -3.52448
C .61859 -1.52587 -4.10088
C -1.38107 -2.47538 -3.45088
C -2.16659 -3.10335 -2.46034
C -1.52482 -4.09452 -1.68404
C 4.73943 -.86515 .25541
C 3.19813 .95469 -3.19838
C 3.95910 .27972 -2.23705
C 4.47392 1.07617 -1.18058
C 4.83206 .48849 .08625
C 1.54743 2.46727 -3.74158
C 2.77395 2.30099 -3.00721
C 2.97035 2.94083 -1.76036
C 3.91981 2.35087 -.90817
C .57892 3.30955 -3.25565
C -.42871 -.58966 -4.35833
C -.19519 .79518 -4.32697
C 1.16623 1.19505 -4.29325
C 2.96361 1.69092 3.03798
C 3.84336 .85484 2.34460
C 4.39288 1.37489 1.14027
C 3.83723 2.52156 .52692
C .78403 3.99446 -1.99244
C 1.89013 3.74438 -1.17981
C 1.72151 3.81963 .27619
C 2.75536 3.22584 1.11562
C 2.45319 2.88984 2.44228
C 3.72504 -.58832 2.51896
C 4.28575 -1.41256 1.51847
C 3.74305 -2.70081 1.22422
C 2.62869 -1.11697 3.31830
C 2.21430 -2.43544 3.09231
C 2.77565 -3.23234 2.04549
C .91324 2.13922 4.00354
C 1.95081 1.15837 3.92062
C 1.67393 -.21863 3.95544
C -.37643 1.74608 4.27512
C -.68718 .34941 4.34877
C .28962 -.63994 4.14187
C -1.47448 2.42676 3.64210
C -2.29435 3.62701 1.73693
C -1.24165 3.40478 2.64485
C -.50470 4.23697 -1.43549
C -.69667 4.30696 -.05245
C .42842 4.07756 .83805
C .13614 3.70026 2.22918
C 1.16042 3.15413 2.99741
C -2.02942 4.08956 .40214
C .32832 -4.58169 -.38775
C 1.60715 -4.20559 .08691
C 1.73161 -4.04750 1.48146
C .56311 -3.85372 2.29075
C -.73331 -4.04240 1.77242
C -.81406 -4.60079 .47043
C -3.05313 -3.70181 .16736
C -1.96482 -4.37735 -.34888
C -.16144 -1.92048 3.64804
C .83360 -2.83183 3.24023
C -2.02338 .17994 3.88442
C -2.44780 -1.00069 3.25060
C -1.52020 -2.10529 3.17154
C -1.80744 -3.20158 2.26288
C -2.99121 -3.15136 1.50112
C -4.09192 .40293 1.92393
C -3.58723 -.90705 2.34576
C -3.86004 -2.00956 1.53790
C -4.71645 .50703 .66975
C -3.93749 2.79917 .35388
C -3.44821 2.79206 1.70497
C -3.49789 1.60840 2.48411
C -2.52711 1.47688 3.49253
C -4.52907 1.67164 -.16537
C -1.48819 3.61869 -2.29052
C -2.69310 3.13578 -1.77548
C -3.02291 3.55828 -.45574
C -1.65253 -1.14504 -3.88689
C -2.64642 -.34181 -3.27027
C -2.44387 1.09092 -3.22086
C -1.22125 1.66265 -3.77970
C -.81265 2.94358 -3.34925
C -4.19624 1.22513 -1.50568
C -3.21671 1.87648 -2.28308
C -4.44110 -1.86185 .22409
C -3.80209 -2.79681 -.66892
C -3.30821 -2.38445 -1.92102
C -4.78475 -.61749 -.22392
C -4.35902 -.19076 -1.54160
C -3.55443 -1.00170 -2.35129
