98 

C 1.79383 -4.29227 -.35484
C 1.80012 -3.60697 -1.58926
C 2.93265 -2.74791 -1.88540
C 2.79018 -1.68669 -2.86000
C 3.73104 -.63445 -2.83314
C 3.38138 .70030 -3.24543
C 1.48809 -1.43864 -3.48150
C 1.26117 -.16595 -4.03673
C 2.17447 .92886 -3.83377
C .56179 -4.63445 .29632
C .52691 -3.40164 -2.27269
C .33831 -2.24920 -3.15916
C -.61082 -4.57499 -.40792
C -.60726 -4.01487 -1.73342
C -.52733 -3.53265 2.22840
C .59278 -4.13892 1.65053
C -1.82456 -4.18574 .24925
C -1.81182 -3.62102 1.52800
C 3.36846 3.24577 -.56308
C 3.11125 2.75573 -1.85440
C 3.89514 1.65023 -2.27369
C 1.40474 2.11568 -3.49984
C 1.78145 2.97191 -2.44800
C .73534 3.64317 -1.71098
C 1.05636 4.17355 -.37897
C 2.33299 3.93770 .18025
C .02341 4.40455 .54063
C .05154 1.80889 -3.74218
C -.98390 2.44845 -3.06292
C -.64727 3.42436 -2.05766
C -2.99866 3.30081 -1.26791
C -1.70287 3.82186 -1.12427
C -1.35502 4.26068 .16926
C -3.50011 -.33523 -3.04152
C -2.38287 .39245 -3.45667
C -2.29019 1.79138 -3.08269
C -3.31520 2.34254 -2.30733
C -1.92947 -3.51038 -1.96867
C -2.13762 -2.40895 -2.81192
C -.98718 -1.73187 -3.38731
C -1.16503 -.35131 -3.78623
C -.03920 .39306 -4.08959
C -3.35983 -1.72525 -2.65600
C 4.69831 .92515 -1.35654
C 4.18745 2.54012 .35393
C 4.76892 1.29726 .00713
C 3.65451 2.78598 1.68371
C 3.64887 1.78080 2.61349
C 2.49030 3.63701 1.55198
C 1.34773 3.46465 2.38209
C .15229 4.00486 1.90275
C 4.66257 -.48043 -1.75321
C 4.25928 .50140 2.29874
C 4.83192 .24448 1.02604
C 4.86552 -1.10597 .60907
C 4.76658 -1.46423 -.80494
C 3.50510 -.49245 2.96357
C 3.39886 -1.79964 2.46634
C 4.21116 -2.12297 1.35046
C 3.78214 -3.13972 .40988
C 2.69653 -3.91308 .69829
C 2.37435 .14631 3.61837
C 1.13390 -.50905 3.76412
C 1.01847 -1.89836 3.33947
C 2.15865 -2.54367 2.70057
C 1.91836 -3.66589 1.90505
C -1.40460 -1.68331 3.56184
C -.28421 -2.45498 3.16392
C 1.27354 2.31899 3.26892
C 2.44956 1.52764 3.40158
C -1.12093 3.52136 2.34979
C -1.23063 2.37804 3.13125
C .00943 1.72167 3.57219
C -.02603 .31499 3.89786
C -1.27996 -.33718 3.91852
C 3.96910 -2.64851 -.92874
C -3.54053 2.01060 2.11693
C -2.50077 1.64010 3.07768
C -2.51227 .34509 3.58992
C -4.50563 1.05061 1.75588
C -4.73975 1.96633 -.50559
C -3.82097 3.01751 -.13560
C -3.26908 3.07905 1.16534
C -2.07709 3.80889 1.30129
C -5.08971 1.01048 .42665
C -4.95221 -.75516 -1.27460
C -4.53145 .24017 -2.24148
C -4.43450 1.57433 -1.86829
C -5.20549 -.38609 .03106
C -2.69693 -3.66241 -.77826
C -3.75606 -2.79467 -.47878
C -4.20423 -1.96407 -1.53629
C -3.42905 -.64904 3.12139
C -2.72337 -1.88534 2.98846
C -2.91443 -2.72525 1.88955
C -4.40799 -.30926 2.21051
C -4.70261 -1.20229 1.12335
C -3.92923 -2.35765 .90214
