98 

C -2.47271 -3.87821 -.12761
C -3.56569 -3.03791 .14135
C -3.76986 -2.68134 1.49550
C -1.52115 -4.20048 .87055
C -1.55993 -3.59302 2.14064
C -2.76149 -2.92201 2.47042
C -4.05169 -2.16390 -.92351
C -4.88758 -1.08702 -.55521
C -4.99867 .08845 -1.35286
C -3.28605 -2.05581 -2.15199
C -3.43804 -.90142 -2.92906
C -4.29799 .16833 -2.55196
C -1.78140 -3.82955 -1.39991
C -2.05816 -2.83845 -2.33264
C .34957 -2.89439 -3.01757
C -.94621 -2.31270 -3.13233
C -1.05479 -.97040 -3.66415
C -2.29244 -.31919 -3.60580
C 1.46976 -2.16251 -3.51914
C -.44588 -4.29536 -1.17668
C 1.91317 -3.98919 -1.44083
C .61405 -3.89410 -2.00202
C -.36434 -2.14607 3.72221
C -.29461 -3.17130 2.75919
C .96744 -3.39336 2.09360
C .96261 -4.14426 .83034
C -.26335 -4.47074 .22340
C 2.06976 -4.05946 -.03584
C -4.41805 2.41991 -.83998
C -3.74460 2.52075 -2.13137
C -5.01502 1.24116 -.45794
C -3.64978 1.41062 -2.93690
C -2.37488 1.08401 -3.53711
C -1.20569 1.87293 -3.32448
C .10493 -.14878 -3.82778
C 1.34607 -.81251 -3.86100
C -1.55924 4.38609 -.02672
C -3.65321 3.16800 .11855
C -2.68864 3.92168 -.64501
C .06269 1.26361 -3.51510
C -1.32841 3.07578 -2.52078
C -2.59561 3.38307 -1.96747
C -.31907 4.39894 -.72916
C 1.28019 1.93341 -3.02618
C -.14867 3.62784 -1.89574
C -1.30604 4.03559 1.34889
C -2.05371 3.05256 2.00048
C -3.31185 2.63209 1.37901
C -3.93631 1.38777 1.78202
C -4.84427 .77202 .89084
C -4.96640 -.65951 .83657
C -3.31073 .57260 2.80969
C -3.67008 -.78880 2.88338
C -4.40749 -1.41988 1.82556
C -2.75827 -1.78744 3.37656
C -1.58834 -1.40236 3.96174
C -1.36767 2.18545 2.96362
C -2.03558 .98229 3.39658
C -1.26507 -.00203 4.04457
C .10574 4.16349 1.54186
C 2.17853 3.28004 2.32567
C .78168 3.37276 2.48251
C .05148 2.32929 3.17828
C .82533 1.22050 3.69919
C .14744 .08694 4.11016
C 2.01512 4.04126 .00225
C .70695 4.43711 .28048
C 2.81269 3.69922 1.12343
C 2.57544 -.12365 -3.54067
C 2.54395 1.22128 -3.09825
C 1.17017 3.06456 -2.17172
C 3.63112 1.63896 -2.31439
C 3.49934 2.74437 -1.41744
C 2.28777 3.42344 -1.29036
C 4.11540 2.01749 2.08043
C 2.92902 2.16411 2.86352
C 2.25348 1.06907 3.40332
C 4.65238 .75189 1.88928
C 3.99348 -.37762 2.46331
C 2.80886 -.25776 3.19162
C 5.01724 1.22170 -.48435
C 4.39907 2.51937 -.29746
C 4.02790 2.93804 .96707
C 5.16306 .36262 .59120
C 3.48046 -1.05940 -3.00636
C 4.39075 -.68456 -1.97601
C 4.55656 .69458 -1.75748
C 3.86386 -2.82342 -.84991
C 3.02776 -3.22624 -1.96866
C 2.81518 -2.35308 -3.00514
C 4.88084 -1.05334 .41881
C 4.57468 -1.59963 -.84856
C .70496 -1.24792 3.90510
C 1.93570 -1.42868 3.27849
C 2.10312 -2.56098 2.40333
C 4.20099 -1.51124 1.58239
C 3.27818 -2.57263 1.52722
C 3.25123 -3.31228 .33095
