98 

C -1.19815 -.74607 4.19206
C -.04699 -1.46390 3.89448
C -.18259 -2.74908 3.22941
C -2.49958 -1.20252 3.79626
C -2.61865 -2.39242 3.11040
C -1.45206 -3.16938 2.83383
C -4.60686 -1.34113 .16547
C -3.51047 -2.47563 1.97706
C -4.21260 -1.34261 1.52423
C -4.04016 -.06284 2.20886
C -4.14246 1.17642 1.43739
C -3.28207 -.05278 3.39260
C -3.53924 2.32460 1.94476
C .95744 -3.32480 2.53711
C 2.21943 -2.79223 2.82640
C 3.33683 -2.99870 1.97183
C .75839 -4.00231 1.27697
C 1.85080 -4.12939 .41362
C 3.15295 -3.67467 .76251
C -1.64868 -3.80183 1.54138
C -.58116 -4.06630 .69765
C -2.05837 -3.56120 -1.24914
C -.77628 -3.92882 -.74463
C .39403 -3.72692 -1.57737
C 1.66981 -3.91932 -1.01445
C -2.13661 -3.02046 -2.57078
C -2.92543 -3.38406 1.03706
C -4.16252 -2.33337 -.73334
C -3.15114 -3.26077 -.33781
C 4.81013 -1.37957 .87573
C 4.61586 -2.07835 -.38360
C 4.14643 -1.79603 2.00768
C 3.77723 -3.16841 -.44528
C 3.31840 .03728 -3.15364
C 4.58390 -1.08669 -1.43690
C 3.66155 -1.17571 -2.50130
C 2.80860 -3.26988 -1.52392
C -.97697 -2.64197 -3.25992
C .31430 -2.92928 -2.75939
C 1.41759 -2.08854 -3.15573
C 2.68822 -2.26136 -2.52041
C 1.11177 -.82594 -3.83562
C 2.04885 .18913 -3.80077
C 4.02310 2.25431 .83713
C 4.28425 .99035 1.41515
C 4.90396 .03064 .58949
C 4.87865 .18712 -.84230
C 3.69768 1.29541 -2.64560
C 4.41664 1.38451 -1.42407
C 4.10810 2.46661 -.55273
C 3.43750 .55754 2.52349
C 3.45764 -.81751 2.83407
C 2.32686 -1.44595 3.38746
C 3.00493 3.12176 1.37773
C 2.11283 2.69169 2.36325
C 2.30106 1.34987 2.94190
C 1.19977 .71467 3.61055
C 1.19856 -.71780 3.76970
C -.06669 1.43137 3.78941
C -1.19763 .69834 4.16297
C 2.58398 3.97858 .29841
C .81937 3.36228 2.44987
C -.26726 2.74103 3.18914
C 1.31519 4.51979 .31861
C .49498 4.33667 1.48539
C 2.63223 2.24427 -2.95078
C 2.28481 3.30141 -2.04408
C 3.11802 3.47430 -.91665
C -2.53006 1.10455 3.78740
C -2.70676 2.28949 3.11978
C -1.58533 3.16646 2.92946
C -.88555 4.43708 -.39368
C -.86516 4.50553 1.03855
C -1.88946 3.94996 1.75805
C -1.87550 3.73506 -1.07158
C -3.00191 3.20189 -.31024
C -3.00223 3.35401 1.07518
C 1.65139 1.58193 -3.67544
C .26954 1.94439 -3.59761
C -.11821 3.02624 -2.75639
C .90316 3.72277 -1.97854
C .49046 4.44771 -.84702
C -2.43652 2.27294 -2.93072
C -1.50974 3.12459 -2.34704
C -2.64294 -1.12358 -3.86158
C -1.24986 -1.42986 -4.01775
C -.27409 -.44683 -4.12805
C -3.04157 .19836 -3.77121
C -2.04213 1.23047 -3.82392
C -.68432 .95063 -4.01887
C -4.59977 -.37722 -1.95204
C -4.18613 -1.76522 -2.06909
C -3.21285 -2.12003 -2.97351
C -4.03351 .58774 -2.78223
C -3.82524 2.13907 -.87193
C -4.40977 1.13558 -.00472
C -4.78667 -.09318 -.57110
C -3.64224 1.83810 -2.23009
