98 

C 1.68114 3.41193 -2.29141
C 2.89460 2.77541 -2.00976
C 3.56247 3.18334 -.82746
C 4.56468 2.34565 -.21161
C 4.95337 1.18381 -.84102
C .64330 2.74210 -3.05347
C .74708 1.39603 -3.40775
C 2.02725 .70484 -3.15908
C 3.11005 1.43131 -2.53247
C 4.20338 .71790 -2.00723
C .85552 -1.46526 -3.54126
C 2.06738 -.72282 -3.19140
C 3.15714 -1.42801 -2.55302
C 4.22028 -.69185 -2.00738
C .79515 -2.82893 -3.21316
C -.39550 -.77188 -3.78691
C -.47778 .66872 -3.62362
C -1.58462 -1.51416 -3.75338
C 4.59371 -2.30520 -.19372
C 5.34135 .02529 -.06146
C 4.97127 -1.14389 -.83119
C 3.57446 -3.14476 -.79115
C 1.75807 -3.41430 -2.31773
C 2.94430 -2.76976 -2.01824
C 4.37777 -2.30432 1.23706
C 4.59643 -1.14169 1.96307
C 5.15540 .03001 1.32091
C 4.54419 1.18867 1.94945
C 4.31651 2.34012 1.21931
C 3.21239 -3.09535 1.49687
C 3.58983 -.70838 2.88763
C 2.43945 -1.45050 3.12607
C 2.24842 -2.70967 2.42308
C 1.04805 -4.17387 -1.32288
C 1.45384 -4.10833 .01601
C 2.79687 -3.70252 .24136
C .45787 -3.93530 1.04974
C .89394 -3.26924 2.29345
C -.06099 -2.77300 3.14696
C -.81789 4.40228 .71405
C .51729 4.09114 1.05270
C 2.11950 2.66898 2.32609
C 3.13598 3.11186 1.46466
C 3.53278 .73850 2.86185
C .12696 -1.50926 3.84601
C 1.28674 -.74085 3.64619
C 1.17218 .67729 3.52107
C 2.31858 1.42192 3.02881
C -1.11853 -.91384 4.00377
C -1.26910 .48839 3.84280
C -.13311 1.29177 3.52180
C -.33491 2.57307 2.82918
C .77021 3.20023 2.14902
C -1.66834 2.97527 2.50096
C -1.88977 3.87899 1.43660
C 1.50483 4.24197 -.00635
C 2.79398 3.76532 .21908
C -1.24477 4.52207 -.67487
C -.33790 4.33233 -1.67677
C 1.06966 4.28299 -1.35969
C -2.56582 3.93833 -.78431
C -2.87750 3.02484 -1.86330
C -3.93803 2.16158 -1.66222
C -3.95242 1.99770 1.98013
C -4.01106 2.67923 .76046
C -3.01849 3.68400 .50936
C -4.56215 2.00172 -.36784
C -2.59063 .93968 3.50718
C -2.78268 2.13846 2.85572
C -1.79215 2.61863 -2.77767
C -.60017 3.33472 -2.71408
C -4.01485 .89569 -2.35404
C -2.93698 .45360 -3.18942
C -1.74890 1.28408 -3.33154
C -2.83832 -.91388 -3.40338
C -4.72098 .00337 -1.54075
C -4.48271 -2.13421 -.36631
C -4.44840 -1.40101 -1.58948
C -3.59008 -1.85650 -2.59939
C -4.43505 .65887 2.09778
C -4.71708 -1.44944 .90805
C -4.93746 -.04524 .96237
C -5.02010 .67182 -.27230
C -2.12943 -1.84824 3.49558
C -3.94510 -2.10339 1.89720
C -3.37021 -1.37496 2.97651
C -3.63566 .00327 3.07125
C -.33128 -4.17891 -1.66893
C -1.33074 -4.09222 -.69634
C -.92929 -3.98671 .70769
C -3.20573 -3.16503 1.26069
C -1.92422 -3.51796 1.68001
C -1.46540 -2.92769 2.89881
C -2.77467 -3.01717 -2.40883
C -1.62050 -2.85888 -3.26318
C -.44787 -3.48099 -2.93836
C -3.57077 -3.17661 -.14178
C -2.64082 -3.59300 -1.12958
