98 

C -2.69068 -3.80796 .15614
C -3.73850 -2.88201 .26425
C -3.98880 -2.35984 1.55827
C -1.76460 -4.00704 1.21659
C -1.83670 -3.24768 2.39043
C -3.04248 -2.52969 2.60198
C -4.10592 -2.10006 -.91445
C -4.85681 -.92104 -.70891
C -4.77289 .18646 -1.60056
C -3.28264 -2.19195 -2.10467
C -3.26358 -1.10740 -2.99275
C -4.00040 .08442 -2.74309
C -.70139 -4.54000 -.76131
C -1.98612 -4.01102 -1.09317
C -2.14845 -3.11026 -2.15274
C .35721 -4.35505 -1.62084
C .20261 -3.46818 -2.73841
C -.98002 -2.77449 -2.95747
C -.68029 -1.68226 3.87450
C -.58579 -2.77873 2.98757
C .72009 -3.90924 1.16486
C -.49217 -4.38537 .65324
C -2.02211 3.22992 -2.62010
C -3.18957 2.42668 -2.47306
C -3.20897 1.21842 -3.18917
C -.87204 -1.45803 -3.58008
C -2.03948 -.72078 -3.67550
C -2.01282 .69970 -3.78093
C .41323 -.76510 -3.65374
C -.79367 1.39433 -3.71839
C -.86385 2.72858 -3.24370
C -3.95554 2.52137 -1.22235
C -4.73649 1.42001 -.81816
C -1.58465 4.13233 -1.56542
C -2.25511 4.15936 -.37297
C -3.45608 3.36035 -.18898
C -.13593 4.15186 -1.57321
C -1.50127 4.12189 .86894
C -.07962 4.13683 .89220
C .62782 4.22109 -.36370
C 3.70628 2.44112 -1.50240
C 2.48070 3.11943 -1.59662
C 1.99398 3.84798 -.43442
C 2.69787 3.69907 .79349
C 2.86108 .61156 -2.93080
C 1.54396 2.66154 -2.57869
C .29137 3.32776 -2.61526
C 3.91340 1.22888 -2.20029
C 1.66526 1.35339 -3.16655
C 1.49229 -2.87041 -3.00688
C 1.62303 -1.51912 -3.36410
C .45196 .65796 -3.63871
C 2.85635 -.83730 -3.03757
C 3.86918 -1.56119 -2.36720
C -3.47064 2.93487 1.15600
C -4.10703 1.74137 1.54767
C -4.85780 1.06503 .55582
C -5.04040 -.36907 .62183
C -4.60401 -1.05531 1.72202
C -2.30776 1.42734 3.29709
C -3.55951 .99218 2.67598
C -3.92817 -.35951 2.79641
C -1.56716 .48265 4.02077
C -1.90651 -.90989 4.01823
C -3.06071 -1.32198 3.41009
C -2.23151 3.37472 1.79539
C 1.97780 3.45333 1.97703
C .56640 3.54945 2.01835
C -.16794 2.69149 2.92371
C -1.58918 2.58304 2.78661
C .56500 1.63833 3.60965
C -.14531 .56429 4.11363
C 3.95357 2.22591 2.10327
C 2.70217 2.46201 2.75156
C 1.99640 1.44322 3.38980
C 4.51424 .95408 2.13642
C 3.77143 -.11373 2.73903
C 2.53842 .09660 3.34699
C 5.17962 1.14729 -.21452
C 4.48877 2.41678 -.27371
C 3.95437 2.97886 .86864
C 5.20456 .42693 .97922
C 4.87488 -1.67756 -.25098
C 4.81938 -.91630 -1.49143
C 4.88866 .45557 -1.45532
C 4.96020 -1.00557 .95420
C 2.41654 -3.47611 -2.10068
C 3.98249 -2.78986 -.37429
C 3.56696 -2.82025 -1.76092
C .39013 -.79181 4.02834
C 1.64111 -1.04123 3.45706
C 1.81971 -2.21602 2.65020
C .68495 -3.05177 2.35902
C 4.02501 -1.33166 1.99706
C 3.03946 -2.31833 1.84466
C 3.05423 -3.11820 .63886
C 1.86872 -3.87911 .27222
C 1.67601 -4.19296 -1.08901
