98 

C -1.71057 -3.87366 -1.85044
C -2.46469 -3.69231 -.69037
C -3.60720 -2.78107 -.73813
C -4.10910 -2.19465 .50335
C -4.75419 -.93268 .47976
C -3.49568 -2.56212 1.71100
C -.39516 -4.35049 .62232
C -1.81726 -4.01351 .58448
C -2.41385 -3.52616 1.75343
C .29855 -4.19913 1.82595
C -.31229 -3.57611 2.96104
C -1.63653 -3.21832 2.91009
C .39612 -4.35443 -.60462
C 1.81844 -4.01809 -.56881
C -.29745 -4.20966 -1.80911
C 2.41543 -3.53828 -1.74063
C -3.26660 -1.60225 2.73502
C -3.67121 -.27139 2.59469
C -4.56941 .00367 1.53144
C -4.65218 1.33375 .95964
C -3.96672 2.35837 1.53948
C -2.04091 -1.93183 3.41003
C .29460 -1.34191 3.83797
C -1.10056 -.94735 3.73926
C -1.46149 .45774 3.55476
C -2.78360 .77631 3.08999
C -3.05743 2.09672 2.64613
C 2.64375 -.75394 3.44805
C 1.33799 -.33297 3.73320
C -.41162 1.45848 3.48253
C .63367 -2.68457 3.57221
C -2.24465 3.82542 -1.36958
C -3.30182 3.21008 -.70956
C -3.38791 3.39727 .71464
C -2.30213 3.92605 1.42603
C .05138 4.51789 1.38222
C -1.21153 4.55324 .75304
C -1.24746 4.58195 -.66987
C .99548 1.05760 3.50216
C -.74134 2.77199 3.02242
C -2.05966 3.06616 2.59684
C 1.99193 1.92659 2.95134
C 1.60457 3.21100 2.48411
C .28415 3.62929 2.52240
C -3.89416 2.01273 -1.30964
C -4.69870 1.20698 -.49132
C -4.88441 -.18573 -.76248
C -3.25574 1.39969 -2.47448
C -3.58220 .08398 -2.79208
C -4.38996 -.72874 -1.92219
C -.28024 3.61271 -2.55520
C -1.60115 3.19611 -2.51422
C -1.98898 1.90925 -2.97361
C 2.06469 3.04755 -2.62496
C .74560 2.75222 -3.04980
C -.99257 1.03658 -3.51956
C 1.25251 4.58487 .63040
C 1.21669 4.54649 -.79211
C -.04637 4.50864 -1.42160
C 2.30714 3.91421 -1.45976
C -1.91247 -3.04898 -3.00700
C -3.85467 -2.07681 -1.93266
C -2.92383 -2.12272 -3.01596
C .31374 -3.59391 -2.94791
C -.63189 -2.70588 -3.56475
C 1.63824 -3.23699 -2.89922
C .41501 1.43637 -3.50246
C -1.33571 -.35545 -3.74165
C -2.64169 -.77416 -3.45326
C 3.06234 2.07797 -2.66765
C 2.78710 .75550 -3.10369
C 1.46480 .43487 -3.56774
C 1.10328 -.97115 -3.74339
C -.29236 -1.36566 -3.83969
C 2.04330 -1.95401 -3.40722
C 3.97101 2.34568 -1.56196
C 4.65605 1.32536 -.97558
C 4.57205 -.00769 -1.53931
C 3.67378 -.28920 -2.60126
C 3.26891 -1.62092 -2.73384
C 2.24849 3.83302 1.33638
C 3.30586 3.21291 .68128
C 3.39208 3.39006 -.74426
C 4.39297 -.71927 1.91801
C 3.58474 .09953 2.78204
C 3.25870 1.41353 2.45674
C 4.88831 -.18357 .75533
C 4.70277 1.20797 .47595
C 3.89767 2.01949 1.28925
C 1.91423 -3.03199 3.01665
C 3.85677 -2.06692 1.93646
C 2.92565 -2.10569 3.01973
C 3.49764 -2.57457 -1.70390
C 4.75652 -.93749 -.48237
C 4.11090 -2.19930 -.49855
C 3.60886 -2.77816 .74622
C 2.46605 -3.68945 .70401
C 1.71206 -3.86393 1.86511
