98 

C -4.12791 2.70571 .18054
C -4.32375 2.02358 -1.02845
C -4.83445 .68166 -.94420
C -4.47956 -.32181 -1.93965
C -3.68623 .00751 -2.99540
C -3.10931 3.73169 .31356
C -2.35659 4.10825 -.78410
C -2.53709 3.40835 -2.04372
C -3.48059 2.37929 -2.18080
C -3.18162 1.36755 -3.14461
C -1.09447 3.78178 1.74326
C -2.46307 3.56355 1.57304
C -.97312 4.40543 -.61969
C -.33390 4.28546 .62155
C -3.24173 -2.51189 -1.64438
C -2.39749 -2.15219 -2.76255
C -4.28561 -1.59205 -1.25732
C -2.64375 -.90871 -3.42461
C -1.58888 -.14310 -3.90442
C -.24752 -.60201 -3.87412
C .00177 -1.94393 -3.46929
C -1.09671 -2.71836 -2.89798
C -.78858 -3.82659 -2.07417
C 2.39812 -1.43091 -3.44914
C 1.37768 -2.35896 -3.22658
C -1.25146 3.32565 -2.67200
C -.88249 2.20859 -3.43141
C -1.90971 1.27182 -3.72771
C .50385 1.78917 -3.45075
C .80390 .40047 -3.83522
C 2.10134 -.05342 -3.70186
C -1.60011 -4.16999 -.97942
C -2.77480 -3.43488 -.66984
C -3.14304 -3.27420 .73804
C -.73203 -4.69766 .05635
C -1.00694 -4.42382 1.36686
C -2.25495 -3.78058 1.72074
C .63025 -4.62335 -.41485
C 1.68039 -4.19823 .44010
C 2.84147 -3.73605 -.18733
C 1.66316 -3.46361 -2.31921
C .58701 -4.16371 -1.75112
C 2.87082 -3.45279 -1.57765
C -4.01571 -2.19145 1.11424
C -4.62559 -1.40618 .07391
C -2.00065 -3.04304 2.91109
C -2.77886 -1.94850 3.22154
C -3.85652 -1.57742 2.37558
C -.56953 -2.97915 3.13550
C 2.08079 -.32880 3.42483
C 3.38597 -.12205 2.97865
C 1.46226 -1.63147 3.18552
C .06717 -1.79120 3.51566
C -.76632 -.61902 3.81048
C -2.14867 -.75126 3.72236
C 1.34441 -3.68232 1.77104
C .04500 -3.88394 2.22348
C 3.74908 -2.82692 .48825
C 3.39232 -2.25641 1.73477
C 2.11193 -2.59248 2.34759
C 4.01673 -1.05251 2.07427
C -4.04434 -.13682 2.53806
C -4.59424 .66163 1.50188
C -4.95818 .01448 .27898
C -4.19736 2.01121 1.43921
C -2.99204 .35299 3.34209
C -1.01687 1.83332 3.35215
C -2.44203 1.63799 3.13375
C -3.14449 2.50216 2.28106
C .96916 3.14209 2.85978
C -.40469 3.01106 2.77756
C 1.24190 .84366 3.66901
C -.19194 .72238 3.72149
C 1.78502 2.11258 3.40873
C 4.74533 1.08297 1.49950
C 3.91102 1.18751 2.68426
C 3.11461 2.29216 2.88467
C 4.66358 2.04861 .51574
C 4.42016 -2.06130 -.49012
C 4.85084 -.73531 -.21840
C 4.80004 -.32087 1.12873
C 4.07859 -.09989 -2.47768
C 3.65883 -1.46923 -2.73354
C 3.87411 -2.43773 -1.78590
C 4.56961 1.63651 -.87884
C 4.70059 .27643 -1.26676
C -.29053 3.96869 -1.82600
C 1.03981 3.59693 -1.81945
C 1.47556 2.54597 -2.73433
C 3.64201 2.49001 -1.52207
C 2.82157 2.01833 -2.57230
C 3.13279 .75813 -3.10332
C 3.06952 3.34502 1.88535
C 1.73831 3.84430 1.83754
C 1.11652 4.17613 .62455
C 3.78631 3.19004 .69845
C 3.13061 3.43806 -.54163
C 1.81534 3.90153 -.61147
