98 

C -3.08476 -3.47349 -.80843
C -3.49623 -2.47185 -1.67780
C -4.50099 -1.56697 -1.19036
C -4.66005 -.24542 -1.76036
C -3.86980 .13294 -2.80575
C -1.80457 -4.10943 -.96270
C -.85399 -3.65386 -1.88763
C -1.22087 -2.53859 -2.76193
C -2.56117 -2.01961 -2.70275
C -2.82629 -.76036 -3.29192
C 1.22161 -2.13992 -3.19858
C -.17389 -1.74499 -3.35662
C -.45744 -.40063 -3.77131
C -1.78443 .04297 -3.76214
C 2.21369 -1.20215 -3.52115
C 1.58331 -3.24421 -2.33742
C .54039 -3.96617 -1.63377
C 2.89871 -3.29058 -1.82095
C -2.69990 3.48681 -1.70640
C -3.63923 2.45452 -1.86214
C -3.37190 1.49933 -2.89194
C -2.11935 1.44523 -3.52410
C 1.88744 .18525 -3.72974
C .58411 .62195 -3.76944
C .28905 1.98933 -3.33122
C -1.09783 2.38536 -3.22854
C -1.44668 3.46069 -2.39945
C -4.42700 2.02822 -.69674
C -4.94711 .69026 -.67853
C -2.46631 4.11233 -.41687
C -3.15424 3.65221 .69294
C -4.16922 2.62751 .54664
C -1.08065 4.42567 -.30547
C -2.43699 3.40412 1.89959
C -1.06540 3.63824 2.01080
C -.37498 4.23885 .89119
C 3.04062 3.54257 -.49451
C 1.71371 3.98038 -.46895
C 1.07491 4.16354 .81449
C 1.76455 3.76753 1.97126
C 2.94266 .99510 -3.18347
C 2.64500 2.22617 -2.57765
C 1.28733 2.73426 -2.63755
C .88203 3.72856 -1.64931
C -.45412 4.07366 -1.56788
C 3.51715 2.66264 -1.55224
C -4.15895 1.84144 1.75268
C -4.55635 .48919 1.74406
C -5.02576 -.05601 .50503
C -3.92050 -.38675 2.66807
C -3.05957 2.27879 2.56210
C 1.06352 2.96996 2.97171
C -.30792 2.80565 2.94267
C -.86054 1.56378 3.43703
C -2.28762 1.35497 3.28512
C -2.79583 .04176 3.40333
C -3.74702 -1.80532 2.37551
C -4.15088 -2.34224 1.11607
C -4.78196 -1.46835 .17946
C -3.40339 -3.41632 .59876
C -2.53835 -2.22158 2.96277
C -1.75674 -3.26717 2.42193
C -2.29577 -3.96350 1.32012
C -.08627 -4.71226 .63255
C -1.41189 -4.55755 .34271
C 1.92865 1.92658 3.40540
C 1.43240 .62065 3.57855
C .00834 .44327 3.65379
C -.52428 -.91596 3.59783
C -1.90082 -1.07250 3.55977
C 1.72482 -1.81675 2.94990
C .32560 -2.03816 3.16172
C -.30803 -3.21335 2.61020
C .46747 -4.09679 1.83486
C .87805 -4.60317 -.41773
C 2.12334 -4.30961 .23540
C 4.25316 -1.06267 1.82099
C 3.71079 -2.30115 1.47251
C 4.02701 -2.79599 .18025
C 3.13711 -3.73583 -.47246
C 3.22622 2.18935 2.84726
C 4.05063 1.12887 2.54657
C 3.59279 -.21263 2.78988
C 2.30060 -.49910 3.24766
C 2.48527 -2.73690 2.13836
C 1.83082 -3.85482 1.59345
C 4.66260 2.13940 .39767
C 3.76647 3.24170 .69307
C 3.10743 3.30427 1.92250
C 4.83271 1.12713 1.32097
C 3.94378 .12988 -2.66086
C 4.64009 .46492 -1.47926
C 4.49843 1.79972 -1.01036
C 4.52831 -1.92122 -.81522
C 3.84714 -2.24642 -2.06591
C 3.52164 -1.23428 -2.93747
C 4.93423 -.24974 .87251
C 4.90740 -.59337 -.50196
