98 

C -4.13606 1.61715 -1.14275
C -4.65440 1.39050 .14400
C -4.89615 .06526 .62489
C -3.91042 .46718 -2.01317
C -4.31502 -.78793 -1.56982
C -4.77550 -1.00236 -.22794
C -2.29928 1.75391 -3.32471
C -2.86599 .51411 -3.04045
C -.80422 -.54262 -3.92782
C -2.12941 -.68035 -3.41299
C -2.54777 -1.97277 -2.86873
C -3.65059 -2.00058 -2.00162
C .07102 -1.67853 -3.91998
C -.18177 .74581 -4.05231
C 1.26641 .89116 -3.86193
C -.99333 1.87320 -3.87301
C 1.76355 2.13811 -3.51634
C -2.71621 -3.87775 -.76349
C -4.23043 -2.26258 .24341
C -3.71493 -2.93216 -.91512
C -1.72134 -4.02093 -1.76589
C -.31079 -2.89810 -3.38761
C -1.61196 -3.07411 -2.80514
C -2.09357 -4.04696 .51931
C -2.41605 -3.24153 1.60537
C -3.57347 -2.34851 1.48257
C -3.70307 -1.21344 2.39280
C -4.38490 -.04752 1.97995
C -2.73380 -1.05410 3.40026
C -.73753 -4.49654 .27962
C 1.62470 -4.24082 .68381
C .32553 -4.17918 1.19210
C .04664 -3.35863 2.34651
C -1.35278 -2.95857 2.59256
C -1.59482 -1.95012 3.50582
C .87545 -3.55051 -2.83392
C .78144 -4.31498 -1.65319
C -.52467 -4.53496 -1.10169
C 1.86919 -4.28521 -.75644
C -2.31884 .22738 3.82143
C -2.80264 1.40109 3.20729
C -3.93686 1.24645 2.38123
C -4.19079 2.16006 1.28384
C -3.36698 3.23403 1.09816
C -.94928 .13697 4.26195
C 1.31521 .85123 4.11902
C -.04837 1.19550 4.06529
C -.46623 2.37639 3.30231
C -1.86120 2.49932 2.94969
C -2.21024 3.42384 1.95301
C 2.68560 -3.52605 1.29576
C 2.46773 -2.69670 2.39917
C 1.12539 -2.63927 2.96516
C .81330 -1.53956 3.86364
C -.52675 -1.21467 4.11177
C 1.74474 -.49686 4.05648
C -2.54096 2.92448 -2.48498
C -3.36987 2.84094 -1.35648
C -3.01695 3.64803 -.24124
C -1.74024 4.25786 -.17215
C -.87512 4.27881 -1.27712
C -1.36777 3.72178 -2.48655
C .89632 3.25881 -3.25356
C -.45305 3.13221 -3.43838
C 2.40620 3.87866 .51988
C 1.07177 4.20525 .33649
C .56636 4.32372 -1.03823
C 1.41269 3.96631 -2.09735
C 2.31458 1.67359 3.49553
C 1.94465 2.77031 2.71689
C .52889 3.12842 2.58221
C .13652 3.93199 1.44539
C -1.22348 4.08470 1.18554
C 2.85987 3.16369 1.69546
C 4.11730 2.45776 -.13063
C 3.25802 3.48789 -.57491
C 2.73122 3.44139 -1.85925
C 4.75091 .11695 -.23874
C 4.33078 1.30202 -.92082
C 3.41403 .82318 3.12661
C 4.69242 .02579 1.23121
C 4.19397 1.11591 1.99406
C 3.93687 2.34426 1.31933
C 3.62756 -3.17939 .24005
C 4.39518 -2.06393 .34939
C 4.37295 -1.29704 1.57552
C 3.41494 -1.58760 2.60037
C 3.04217 -.52456 3.42507
C 1.98037 -2.68824 -3.03917
C 3.04579 -2.60099 -2.11945
C 3.03104 -3.52473 -1.03764
C 2.92693 2.27712 -2.66048
C 3.63360 1.15954 -2.17487
C 3.25303 -.16502 -2.65685
C 2.08769 -.27946 -3.53781
C 1.50447 -1.52126 -3.71393
C 4.51332 -1.14038 -.77317
C 3.71917 -1.31922 -1.96331
