98 

C 3.62541 -1.95871 -2.30480
C 3.80815 -.58855 -2.55619
C 4.63373 .10649 -1.63917
C 4.57888 1.54485 -1.52028
C 3.69017 2.25256 -2.30559
C 2.45991 -2.65445 -2.80759
C .19637 -2.57976 -3.54982
C 1.44526 -1.95758 -3.51021
C 1.52021 -.51218 -3.66040
C 2.76222 .14739 -3.27587
C 2.75770 1.53442 -3.15623
C 4.01859 2.95671 .41134
C 3.19312 3.77920 -.45080
C 4.71594 1.87549 -.11448
C 2.99564 3.40488 -1.76698
C -.30321 4.43141 .62982
C 2.05688 4.21961 .32760
C .77566 4.38596 -.25946
C 1.64953 3.40050 -2.31558
C -.77143 3.38557 -1.99631
C .54458 3.87192 -1.61313
C -3.12524 3.09546 -1.34658
C -1.89709 3.71600 -1.13387
C -1.65252 4.18732 .18567
C .30030 1.64812 -3.41779
C 1.52629 2.26582 -3.18126
C -3.37078 -.51462 -3.27182
C -2.22224 .25617 -3.56227
C -2.17696 1.62396 -3.08201
C -.89658 2.30089 -2.92195
C -3.29076 2.12240 -2.39216
C .30354 .24164 -3.77398
C -.98958 -1.84122 -3.84625
C -.97832 -.44344 -3.87100
C 4.10121 .48778 1.83872
C 3.32503 1.59915 2.36003
C 4.78424 .65965 .62339
C 3.34411 2.80975 1.65711
C 2.17316 3.66590 1.62868
C -.18004 3.93923 1.95856
C 1.02821 3.37404 2.40022
C .99142 2.18878 3.22613
C 2.19163 1.34542 3.25762
C 2.09267 .07588 3.79680
C 2.90250 -1.03257 3.32421
C 3.79267 -.87869 2.26011
C 3.98034 -1.99722 1.34820
C 2.12989 -2.22113 3.49629
C 2.23586 -3.24706 2.58317
C 3.21832 -3.16735 1.55343
C .82914 -1.85658 4.00498
C -.34022 -2.47971 3.52396
C -1.53882 -1.78065 3.72266
C -1.44014 3.39281 2.34550
C -1.52854 2.25435 3.13126
C -.28053 1.65846 3.62768
C -.33722 .31361 4.15637
C .83829 -.44893 4.24194
C -1.54682 -.41374 4.08910
C 4.45389 -1.73058 -.00590
C 4.85799 -.43071 -.33989
C 2.70223 -3.94082 .43983
C 3.10374 -3.65302 -.83474
C 4.00424 -2.54848 -1.07385
C -.14086 -3.61046 -2.61255
C 2.13543 -3.69017 -1.90632
C .77567 -4.03238 -1.65774
C -.26347 -3.41099 2.40005
C 1.02069 -3.84839 2.02991
C 1.30116 -4.25768 .71322
C -1.04525 -3.87032 .08094
C .31087 -4.21845 -.28679
C -1.33572 -3.47760 1.43049
C -3.53164 -.88761 3.00526
C -2.69972 -2.05305 2.91282
C -2.60729 -2.79732 1.73093
C -4.44534 -.62082 2.01973
C -4.54469 -1.51273 .89380
C -3.57343 -2.51614 .67679
C -3.26438 -2.88561 -.68918
C -2.00818 -3.55811 -.98542
C -1.54053 -3.50555 -2.30484
C -3.76489 1.75674 1.99912
C -2.76807 1.45873 3.03042
C -2.75916 .17743 3.57534
C -4.63828 .73298 1.58044
C -4.81412 1.64995 -.68219
C -3.99606 2.75531 -.25653
C -3.51527 2.84274 1.06614
C -2.37731 3.65378 1.26802
C -5.14035 .65956 .22458
C -4.77876 -1.06872 -1.48406
C -4.42774 -.02231 -2.43747
C -4.40711 1.29515 -2.03052
C -5.09842 -.73770 -.18647
C -2.07966 -2.56436 -3.24406
C -3.93067 -2.20300 -1.73331
C -3.24699 -1.91998 -2.96582
