98 

C 4.20981 .29485 -2.61370
C 3.55000 -.86996 -3.18045
C 4.91144 .17782 -1.41086
C 3.68763 -2.09982 -2.58654
C 2.55194 -2.98835 -2.53325
C 3.92713 2.29571 -.59368
C 3.23567 2.43243 -1.85573
C 4.74110 1.16668 -.40264
C 3.36066 1.41165 -2.81337
C .96653 2.91519 -2.83157
C 2.06845 3.29314 -1.95573
C 1.80971 4.16500 -.89760
C -.25789 3.54395 -2.67377
C -.51278 4.42730 -1.56959
C .48916 4.67265 -.66040
C .34213 -4.24927 -1.40241
C .11351 -3.26334 -2.37546
C 1.25917 -2.58851 -2.94336
C 1.09050 -1.25661 -3.50026
C 2.24829 -.46297 -3.66008
C 2.17828 .94004 -3.53194
C -.19276 -.60952 -3.47787
C -.25622 .82200 -3.54624
C .95861 1.59598 -3.44904
C 2.43650 3.96260 .39469
C 3.40273 2.97476 .59297
C 3.48409 2.33442 1.89957
C 1.45522 4.27892 1.39439
C 1.45924 3.58853 2.58361
C 2.52426 2.67825 2.87153
C .20145 4.57729 .74782
C 4.12939 1.02759 2.01218
C 4.79014 .49658 .89254
C 1.96950 1.67497 3.75926
C 2.51207 .42042 3.80127
C 3.65314 .09724 2.97386
C .53283 1.83134 3.78480
C -2.52271 -.22629 3.13639
C -3.78419 -.05586 2.56312
C -1.66543 .93560 3.25013
C -.33216 .73668 3.76789
C .24678 -.60536 3.81236
C 1.64400 -.72589 3.85476
C -.98807 3.16681 2.37792
C .21467 3.03165 3.07456
C -4.10030 2.65428 -.49361
C -3.24136 3.03745 .55673
C -3.20032 2.20034 1.74619
C -1.99897 2.14549 2.56315
C -4.11467 1.14983 1.85148
C -1.01396 4.02572 1.19470
C -1.85447 4.20141 -1.10962
C -2.10291 3.89089 .24094
C 3.56827 -1.28130 2.65807
C 4.11660 -1.80229 1.47150
C 4.86772 -.90600 .66833
C 5.00131 -1.11556 -.75681
C 4.42770 -2.22573 -1.33446
C 2.24642 -3.49722 1.43867
C 3.47434 -2.95623 .85283
C 3.72865 -3.19159 -.51199
C 1.44134 -4.31100 .64358
C 1.62374 -4.37491 -.77840
C 2.72178 -3.78430 -1.34932
C 2.31212 -1.79077 3.19216
C .16938 -2.85168 2.76312
C 1.60631 -2.81392 2.57378
C -1.98840 -3.66117 1.89996
C -.59754 -3.79004 1.96975
C .02742 -4.44772 .88749
C -1.94819 -1.56466 3.17824
C -.50951 -1.73331 3.35335
C -2.67510 -2.61008 2.60397
C -3.92517 -3.17503 .71668
C -2.69705 -3.92798 .68798
C -1.95592 -4.06321 -.50757
C -.63034 -4.48889 -.36612
C -4.39380 -2.60348 -.45392
C -5.20061 -.64149 .78967
C -4.50629 -1.14403 1.95452
C -3.93179 -2.39919 1.93900
C -5.11258 -1.35078 -.41098
C -4.77506 .73716 -1.64990
C -4.93151 1.48592 -.41037
C -5.02093 .79807 .78436
C -4.77748 -.63625 -1.62642
C -2.49856 3.43224 -2.14580
C -3.81471 1.42734 -2.47097
C -3.62075 2.70970 -1.85758
C -2.28234 -3.22082 -1.64980
C -1.21896 -2.66633 -2.47003
C -1.37895 -1.37354 -3.05850
C -3.52120 -2.57894 -1.62425
C -3.71876 -1.35218 -2.30836
C -2.64629 -.69186 -2.93853
C -2.72379 .75465 -3.06419
C -1.51979 1.50745 -3.33271
C -1.49147 2.86883 -2.99763
