98 

C -2.53649 -2.62075 -2.70836
C -3.19542 -1.37209 -2.96810
C -4.31250 -1.05249 -2.15858
C -4.72543 .28829 -1.96802
C -4.02846 1.32293 -2.60537
C -1.20410 -2.81638 -3.04518
C -.42113 -1.78374 -3.64433
C -1.01557 -.51018 -3.85864
C -2.42473 -.30827 -3.55411
C -2.88369 1.01740 -3.38644
C 1.21258 .45071 -4.08558
C -.14305 .65062 -3.93804
C 2.93835 -2.71795 -2.29112
C 1.60383 -2.88589 -2.64713
C 1.01336 -1.93407 -3.57967
C 1.79610 -.85743 -4.01827
C -4.81954 1.59747 .10073
C -4.18804 2.70884 -.59011
C -5.11558 .43845 -.57647
C -3.77201 2.56645 -1.89888
C -1.16639 4.19776 .97940
C -3.31971 3.37241 .35176
C -2.09120 3.94030 -.04642
C -.56927 1.93259 -3.39899
C -1.93628 2.11181 -3.22191
C -2.44415 3.02390 -2.27621
C -.14584 3.59321 -1.60957
C -1.57312 3.67549 -1.38157
C .35112 2.76623 -2.66768
C -1.11173 -1.08062 4.10643
C -2.35862 -.99325 3.47586
C -4.92382 -.83501 .08244
C -4.25152 1.53137 1.43868
C -3.95918 .32771 2.07863
C -4.39418 -.90923 1.41185
C -2.85532 .29743 3.04762
C -3.40550 2.67477 1.60121
C -1.29951 3.59800 2.25379
C -2.32583 2.65755 2.49638
C -2.02979 1.45414 3.24293
C -.68770 1.31700 3.81450
C -.29005 .07548 4.28099
C -3.79939 -2.11744 1.78089
C -2.81223 -2.17576 2.82863
C 1.10347 -1.76648 4.10767
C -.25356 -2.21633 3.92618
C -.56848 -3.18766 2.96016
C -1.91011 -3.21092 2.51825
C 2.12078 -2.36897 3.39224
C 2.10884 .45212 3.72823
C 1.09935 -.35255 4.26958
C 3.20958 -1.58509 2.91926
C 3.22062 -.18591 3.04152
C 1.76726 1.83869 3.44603
C .02235 3.43633 2.81040
C .37655 2.27931 3.50613
C 2.67599 2.57868 2.68494
C -3.47518 -3.12505 .81477
C -3.75657 -2.90899 -.55458
C -4.53931 -1.77157 -.89886
C -2.81481 -3.38438 -1.49605
C -2.26294 -3.75454 1.22772
C 1.79460 -3.35753 2.37925
C .47902 -3.69125 2.06719
C .14856 -4.02870 .67676
C -1.26068 -4.10065 .29806
C -1.60764 -3.98906 -1.07122
C 2.80638 -3.27978 1.37158
C 2.50302 -3.54808 .02583
C 1.14057 -3.88415 -.34199
C .73292 -3.63229 -1.72781
C -.60727 -3.69131 -2.04555
C 3.38360 -3.00665 -.93743
C 3.71059 -2.23176 1.71957
C 4.41417 -1.52531 .73952
C 4.37342 -2.05688 -.58001
C 3.99473 2.67108 .77840
C 3.78851 1.94696 1.99970
C 4.01826 .57265 2.07714
C 4.52795 2.03645 -.31213
C 4.95086 .67076 -.20577
C 4.63725 -.09557 .93277
C .93195 4.08008 1.91689
C 2.91512 3.61074 .60348
C 2.24384 3.67409 1.86973
C 3.41294 .71131 -3.41480
C 2.17760 1.41497 -3.60159
C 1.77987 2.47086 -2.76803
C 4.27588 1.11303 -2.41262
C 3.94118 2.25717 -1.61755
C 2.70095 2.92119 -1.74589
C 2.18509 3.65821 -.60123
C .77647 4.02294 -.54879
C .23574 4.37252 .69503
C 4.62912 -1.21902 -1.73312
C 3.74253 -1.64410 -2.79829
C 3.16739 -.70377 -3.64007
C 4.90159 .11920 -1.54854
