98 

C 1.51268 4.21129 -1.30096
C 1.97366 3.19465 -2.16472
C 3.21093 2.52367 -1.83038
C 3.50761 1.22583 -2.41522
C 4.52424 .44842 -1.82251
C 4.56313 -.98200 -1.94970
C 2.48957 .54408 -3.20423
C 2.60818 -.83522 -3.38706
C 3.64449 -1.61363 -2.76473
C .11278 4.51639 -1.19246
C .99995 2.53084 -3.02805
C 1.18297 1.14891 -3.41731
C -.75082 4.05479 -2.14143
C -.28942 3.06249 -3.09167
C -.27474 4.45668 .20346
C -1.48360 3.86886 .60615
C -1.51852 3.18532 1.87835
C 4.24981 -2.72142 -.24043
C 3.39870 -3.45111 -1.16023
C 4.86908 -1.54749 -.64051
C 3.07903 -2.89485 -2.38489
C .03736 -4.49692 .03531
C 2.35066 -4.07195 -.38135
C 1.04266 -4.25208 -.90459
C 1.69942 -2.91193 -2.83933
C -.68577 -3.14609 -2.38051
C .68150 -3.57327 -2.15273
C -3.00491 -3.13786 -1.56208
C -1.72396 -3.68225 -1.51042
C -1.35407 -4.30121 -.28616
C .15906 -1.12785 -3.55405
C 1.43646 -1.66521 -3.48577
C -3.65528 .66071 -2.97007
C -2.46274 .04129 -3.40221
C -2.28489 -1.36877 -3.11993
C -.94952 -1.94977 -3.12161
C -3.31271 -2.05101 -2.45443
C .03528 .31849 -3.66085
C -1.41432 2.26351 -3.44859
C -1.29131 .88427 -3.64280
C 4.38859 -.51617 1.56101
C 3.64278 -1.70853 1.93731
C 5.00260 -.47538 .29027
C 3.65744 -2.79428 1.05855
C 2.52768 -3.69910 .97511
C .22367 -4.17061 1.40887
C 1.42342 -3.58664 1.84831
C 1.37434 -2.52150 2.82322
C 2.53363 -1.62083 2.90805
C 2.38459 -.42704 3.59362
C 4.99565 .75219 -.49183
C 3.10828 .77410 3.22230
C 4.06747 .75963 2.19493
C 4.25040 1.96830 1.48465
C 4.65593 1.93884 .09079
C 2.24102 1.87512 3.40528
C 2.24032 2.97069 2.52099
C 3.34346 3.05515 1.64102
C 3.20492 3.69445 .34687
C 2.03617 4.32656 .02825
C 1.00843 1.38917 3.96963
C -1.36050 1.19201 3.90048
C -.22673 1.97814 3.64733
C -.30107 3.02607 2.63341
C .95138 3.57110 2.13868
C .91850 4.32563 .96375
C -1.03725 -3.77218 1.94201
C -1.14075 -2.74598 2.86852
C .09904 -2.12704 3.35554
C -.00727 -.85294 4.03220
C 1.12098 -.02102 4.11981
C -1.25529 -.20779 4.12180
C 3.87305 2.89565 -.64095
C -3.48457 -2.28520 1.96012
C -2.43337 -2.03714 2.94860
C -2.46588 -.82888 3.64172
C -4.45686 -1.29013 1.73532
C -4.74194 -1.93106 -.61014
C -3.81619 -3.01192 -.38610
C -3.23344 -3.22691 .88081
C -2.03240 -3.96607 .90178
C -5.07055 -1.09242 .43746
C -4.98849 .86010 -1.05528
C -4.61266 -.02375 -2.15258
C -4.45990 -1.37546 -1.92197
C -5.17305 .34304 .20948
C -2.56437 2.81822 -2.76839
C -4.27533 2.09667 -1.21348
C -3.64221 2.02889 -2.50722
C -3.35386 .23004 3.26671
C -2.61169 1.46195 3.25143
C -2.69583 2.36231 2.18843
C -4.32831 .00972 2.32969
C -4.59608 1.02379 1.33937
C -3.74371 2.13902 1.18906
C -3.60936 2.71794 -.13413
C -2.48022 3.58376 -.42661
C -2.10592 3.74811 -1.77548
