98 

C -3.24115 1.46344 -2.62306
C -4.31545 .74235 -2.09124
C -5.01340 1.17442 -.92100
C -2.81430 2.68232 -1.95893
C -3.50797 3.08503 -.81335
C -4.58887 2.32556 -.27017
C -.70423 2.60492 -3.18541
C -1.44015 3.16298 -2.13911
C -.72098 3.81569 -1.07273
C -1.43661 4.05888 .17795
C -2.78864 3.68281 .29280
C -.71727 4.12889 1.38375
C .70851 2.60644 -3.18466
C 1.44196 3.16584 -2.13726
C .72028 3.81696 -1.07156
C 2.78618 3.68664 .29692
C 1.43389 4.06086 .18025
C .71291 4.12926 1.38502
C 4.32145 .75032 -2.08633
C 3.24665 1.46984 -2.61957
C 2.81665 2.68751 -1.95521
C 3.50798 3.09063 -.80834
C -5.23107 -.00052 1.22478
C -4.66935 1.16186 1.88276
C -5.40702 .00445 -.15765
C -4.44567 2.32271 1.17245
C -3.30189 3.14105 1.50113
C -2.39606 2.75307 2.52416
C -1.15256 3.37840 2.51138
C -4.58464 -2.31452 -.28723
C -4.44144 -2.32213 1.15522
C -5.01167 -1.15944 -.92981
C -4.66726 -1.16708 1.87399
C -1.14595 -3.38354 2.48486
C -3.29639 -3.14148 1.47723
C -2.39100 -2.76002 2.50301
C -2.48397 1.42244 3.10164
C -3.66174 .69855 2.83649
C -3.66033 -.70986 2.83106
C -1.27815 -.72145 3.46505
C -2.48158 -1.43425 3.09066
C -1.27998 .70777 3.47079
C -3.23896 -1.43383 -2.63392
C -2.80968 -2.65677 -1.97903
C -4.31440 -.71798 -2.09706
C -3.50278 -3.06871 -.83649
C -2.78214 -3.67331 .26486
C -.70941 -4.12404 1.35172
C -1.42924 -4.04596 .14717
C -.71373 -3.79232 -1.10127
C -1.43446 -3.13379 -2.16257
C -.69956 -2.56702 -3.20457
C -1.15571 -1.37376 -3.90220
C -2.31090 -.70863 -3.49442
C -2.31204 .74593 -3.48899
C .00553 -.67116 -4.35199
C .00450 .71895 -4.34646
C -1.15796 1.41604 -3.89180
C 1.16781 -1.37131 -3.90170
C 1.16523 1.41846 -3.89080
C 2.32009 .75073 -3.48697
C 2.32141 -.70384 -3.49275
C 3.51419 -3.06143 -.83274
C 2.82211 -2.65089 -1.97636
C 3.24968 -1.42746 -2.63109
C 4.32303 -.70989 -2.09228
C .72112 -4.12281 1.35258
C 1.44215 -4.04294 .14882
C .72776 -3.79068 -1.10050
C 1.44816 -3.13061 -2.16124
C .71331 -2.56548 -3.20404
C 2.79406 -3.66775 .26812
C 4.45048 -2.31496 1.16049
C 4.59449 -2.30638 -.28237
C 5.01952 -1.15037 -.92422
C 4.67348 -1.16000 1.88024
C 1.15524 -3.38172 2.48669
C 2.39933 -2.75648 2.50648
C 3.30647 -3.13600 1.48136
C -.00239 2.76655 3.11668
C -.00122 1.42317 3.48730
C 2.48263 1.42551 3.10552
C 1.27924 .70935 3.47269
C 1.28121 -.71977 3.46699
C .00213 -1.43536 3.47583
C .00364 -2.77547 3.09508
C 3.66253 .70366 2.84233
C 3.66459 -.70467 2.83661
C 2.48657 -1.43071 3.09442
C 4.44462 2.32891 1.17885
C 3.29900 3.14525 1.50582
C 2.39267 2.75562 2.52764
C 1.14789 3.37903 2.51301
C 4.67045 1.16880 1.88934
C 5.41172 .01349 -.15103
C 5.01704 1.18293 -.91492
C 4.58946 2.33277 -.26396
C 5.23507 .00771 1.23077
