98 

C -4.09492 1.63260 -1.56487
C -4.91331 .83341 -.74162
C -5.06309 -.57043 -.96270
C -3.37255 .99376 -2.65288
C -3.58009 -.36778 -2.87648
C -4.43781 -1.15891 -2.05335
C -1.81713 2.87846 -2.76252
C -2.12900 1.58328 -3.15922
C .27793 1.27006 -3.72201
C -1.05078 .74381 -3.65911
C -1.23149 -.69473 -3.66529
C -2.49298 -1.21727 -3.32673
C 1.35229 .36459 -3.90196
C .59788 2.57358 -3.18882
C 1.91622 2.82801 -2.61092
C -.47776 3.37637 -2.78540
C 2.01437 3.78638 -1.59474
C -4.41109 -2.47840 .44593
C -3.87317 -3.14290 -.72839
C -5.02355 -1.24276 .33306
C -3.84548 -2.48016 -1.93929
C -.38649 -4.42629 -.52163
C -2.70889 -3.89013 -.30827
C -1.57404 -4.03437 -1.15131
C -2.62381 -2.48443 -2.73056
C 1.16519 -1.02112 -3.81748
C -.10911 -1.57643 -3.57326
C -.19113 -2.81104 -2.83273
C -1.47516 -3.23578 -2.35645
C 1.03034 -3.34567 -2.21832
C .89416 -4.17342 -1.10855
C -3.89027 -.46365 2.39699
C -3.18772 -1.73877 2.47137
C -4.81110 -.25998 1.34833
C -3.51934 -2.72533 1.53720
C -2.52763 -3.67485 1.08356
C -.24771 -4.34493 .89320
C -1.24953 -3.74830 1.67386
C -.88140 -2.79287 2.71681
C -1.87101 -1.82506 3.12542
C -1.42886 -.69699 3.82861
C -4.93277 1.03828 .70056
C -2.10956 .57986 3.73368
C -3.29146 .72289 3.00747
C -3.53728 2.00846 2.44496
C -4.33368 2.13896 1.24513
C -1.12173 1.60907 3.76307
C -1.24081 2.75912 2.96274
C -2.51455 2.98242 2.38212
C -.04673 3.32777 2.35890
C -.20655 4.14658 1.14858
C .91914 4.41092 .37218
C .14720 .99552 3.97215
C 1.31534 1.53993 3.47205
C 1.23203 2.76699 2.67769
C 3.55167 2.32736 1.91728
C 2.38755 3.12450 1.87678
C 2.20881 3.90470 .72146
C 3.25034 -1.63015 2.88729
C 2.27590 -.79370 3.44536
C 2.46855 .64216 3.36304
C 3.61734 1.12453 2.72691
C 1.14049 -4.14977 1.19055
C 1.53395 -3.31713 2.25878
C .51896 -2.56138 2.99056
C .92966 -1.33456 3.61950
C -.05861 -.44135 4.03186
C 2.85900 -2.85481 2.22174
C -2.51013 3.51288 -1.65008
C -3.57384 2.87295 -1.00115
C -3.71304 3.12222 .39048
C -2.64085 3.69137 1.12048
C -1.51141 4.22635 .48074
C -1.56624 4.29801 -.93545
C .85870 4.45488 -1.07872
C -.35127 4.31830 -1.71299
C 5.02578 .85831 .89664
C 4.35671 2.13357 .76526
C 3.90782 2.60192 -.49898
C 2.91439 3.58602 -.47945
C 5.21358 .07345 -.22216
C 4.64950 -1.94894 1.05534
C 4.40046 -1.11807 2.21898
C 4.58333 .25665 2.13983
C 5.01791 -1.36770 -.14138
C 1.85858 -4.14002 -.02981
C 3.08475 -3.46478 -.14879
C 3.66984 -3.00907 1.05614
C 3.34824 -.57659 -3.20131
C 2.37803 -1.62317 -3.31423
C 2.32856 -2.68677 -2.41547
C 4.34062 -.65704 -2.24599
C 4.39250 -1.80229 -1.37749
C 3.37789 -2.77809 -1.39781
C 4.00181 1.72721 -1.66312
C 2.96575 1.80924 -2.69078
C 2.69797 .67106 -3.45538
C 4.71205 .52062 -1.51164
