98 

C -3.49040 -1.46029 2.69587
C -3.35008 -.11229 3.08346
C -4.16245 .82566 2.40858
C -3.74302 2.20441 2.27878
C -2.61238 2.62941 2.92444
C -2.38265 -2.39456 2.84823
C -1.12822 -1.98503 3.39306
C -.96255 -.60844 3.80642
C -2.08219 .32215 3.67193
C -1.79565 1.68594 3.65683
C 1.44717 -.98400 3.86115
C .36403 -.08581 3.92939
C 1.15233 -4.11050 1.35601
C -.05957 -3.75197 2.00161
C .00170 -2.79995 3.10005
C 1.27672 -2.32353 3.49613
C -.79699 4.38334 .22991
C -1.93716 3.95194 .94368
C -1.73889 3.58909 2.29094
C -.41460 3.35176 2.77827
C 1.93332 2.87385 2.19356
C .71986 3.66277 2.02267
C .49130 4.34599 .79609
C 4.05960 2.10827 1.22204
C 2.99390 3.00231 1.18782
C .64310 1.32229 3.67762
C -.44343 2.16956 3.59896
C 2.77241 -.55005 3.44034
C 2.99366 .78156 3.00691
C 1.90821 1.74205 3.05936
C 4.05906 .98764 2.12030
C -3.04744 3.37495 .19732
C -4.01057 2.64141 .92304
C -4.78639 1.61271 .31018
C -2.87949 3.08950 -1.21874
C -3.73398 2.15494 -1.80699
C -4.67740 1.39886 -1.04678
C -.66734 4.12370 -1.19490
C -1.59380 3.35695 -1.88442
C -1.11273 2.48456 -2.96047
C -2.01319 1.45642 -3.45903
C -3.29726 1.32381 -2.90906
C -1.46467 .30466 -4.07737
C .72445 4.07239 -1.49802
C 2.58392 2.89045 -2.43268
C 1.21428 3.22558 -2.50747
C .29060 2.36415 -3.21206
C .83177 1.12832 -3.79484
C -.04763 .14307 -4.18457
C 2.69906 3.64591 -.09834
C 1.44727 4.23671 -.28337
C 3.34556 3.17108 -1.27240
C -4.18279 -2.28539 -1.22925
C -4.77659 -1.06874 -.73920
C -4.72389 .05032 -1.58215
C -3.92306 .04250 -2.77730
C -2.03789 -.97215 -3.89678
C -3.25103 -1.12840 -3.18890
C -3.41931 -2.30974 -2.40092
C -4.81912 -.85081 .71511
C -4.84991 .46742 1.21043
C -3.59374 -3.25505 -.31720
C -3.62798 -3.04124 1.02900
C -4.24282 -1.83376 1.56559
C -2.38366 -3.77690 -.93481
C -2.45623 -3.34385 1.83238
C -1.26031 -3.89171 1.25761
C -1.20709 -4.07756 -.17106
C -.94689 -1.94112 -3.76447
C -1.00902 -2.99016 -2.81531
C -2.28823 -3.23414 -2.20623
C .18316 -3.40173 -2.14911
C .05119 -4.04274 -.84010
C 1.20314 -4.20017 -.04428
C .25514 -1.26871 -3.99603
C 1.46303 -1.67957 -3.40762
C 1.45179 -2.80497 -2.52586
C 3.74431 -2.18621 -1.81688
C 2.63378 -3.03901 -1.70034
C 2.50589 -3.74764 -.49042
C 4.28229 1.29985 -2.31622
C 3.10078 1.66726 -3.02917
C 2.22115 .71767 -3.54776
C 4.59459 -.04497 -2.15874
C 3.71193 -1.03104 -2.69398
C 2.53744 -.69041 -3.36613
C 5.18445 .32898 .18507
C 4.80660 1.72110 .03394
C 4.42384 2.20853 -1.19876
C 5.09695 -.53429 -.89148
C 3.42070 -1.63600 2.82393
C 4.30912 -1.43448 1.72711
C 4.72949 -.11325 1.49250
C 3.27967 -3.40904 .64317
C 2.44550 -3.63621 1.81329
C 2.50735 -2.76799 2.86932
C 4.56157 -1.87244 -.69307
C 4.22853 -2.35643 .59116
