98 

C -2.91713 -3.60023 -.77357
C -3.57361 -3.02291 .33612
C -4.57357 -2.04579 .05405
C -4.96980 -1.08453 1.02466
C -4.34558 -1.07299 2.27207
C -1.63538 -4.19608 -.63740
C .44058 -4.43219 .53231
C -.96022 -4.20648 .60121
C -1.51456 -3.47868 1.71561
C -2.86449 -2.96423 1.60360
C -3.28975 -1.99552 2.53847
C -4.91506 1.36753 .93112
C -4.29199 1.38636 2.25926
C -5.22570 .16788 .33475
C -3.98471 .19956 2.88611
C -2.69506 .04369 3.50258
C -1.70999 1.06240 3.47212
C -.01658 -.71550 3.77075
C 1.32479 -1.11147 3.79484
C 1.31420 -4.03468 1.59617
C .81840 -3.23353 2.63710
C -.59949 -2.91016 2.69139
C -.99135 -1.72461 3.40297
C -2.32613 -1.32417 3.36051
C 1.74984 -2.36289 3.27139
C -2.49612 3.97215 .58406
C -4.31952 2.42935 .15112
C -3.52591 3.20225 1.06385
C -.33736 .69000 3.64984
C -2.05203 2.32648 2.85122
C -3.34254 2.46744 2.28941
C -1.28345 4.08936 1.33273
C .72386 1.64508 3.33905
C -.98745 3.19012 2.37731
C -2.16917 3.93629 -.81218
C -2.73713 2.98194 -1.66502
C -3.89434 2.22912 -1.18127
C -4.25561 .97139 -1.82338
C -4.93572 -.03016 -1.06837
C -3.49207 .53775 -2.92214
C -.79068 4.31836 -.92206
C 1.41889 3.93066 -1.73722
C .03814 3.81432 -1.94901
C -.47998 2.77097 -2.82254
C -1.88727 2.43237 -2.72338
C -2.31927 1.26244 -3.34985
C 1.08773 4.26988 .66761
C -.27161 4.47409 .39176
C 1.95147 4.24425 -.44921
C 2.38679 -.17431 3.65035
C 2.09814 1.19775 3.38454
C .40593 2.85744 2.63676
C 3.09745 1.92294 2.71603
C 2.76562 3.07062 1.95561
C 1.44260 3.53139 1.86980
C -3.26526 -.85356 -3.18036
C -3.77871 -1.83693 -2.29947
C -4.62764 -1.40750 -1.24917
C -2.99145 -2.99766 -2.08707
C -1.96257 -.99700 -3.74870
C 2.20590 -.41689 -3.62329
C .84469 -.63379 -3.78610
C .31145 -1.92890 -3.43215
C -1.14140 -2.10183 -3.45416
C -1.72955 -3.15204 -2.71118
C 2.35137 3.06958 -2.41298
C 1.87987 2.01915 -3.21563
C .44418 1.84471 -3.41647
C -.02702 .54641 -3.84532
C -1.39516 .32706 -3.87710
C 2.74303 .91015 -3.37083
C 3.04994 -1.37241 -3.00687
C 2.52017 -2.53645 -2.43541
C 1.13344 -2.85208 -2.69850
C .48204 -3.86045 -1.85751
C -.90598 -3.96381 -1.84897
C 1.14504 -4.31738 -.68278
C 4.16224 -.64512 -2.41736
C 4.74312 -1.09716 -1.26391
C 4.27670 -2.33010 -.66877
C 3.20870 -3.07528 -1.24708
C 2.49482 -3.91616 -.38222
C 3.50569 2.91502 -1.58667
C 4.24928 1.71841 -1.58848
C 3.92273 .77453 -2.60355
C 4.51104 1.94284 .86111
C 3.68579 3.13553 .83768
C 3.25967 3.65056 -.36299
C 5.06671 -.16494 -.19290
C 4.80694 1.23137 -.32513
C 3.48132 -.84171 3.05095
C 4.86465 -.84052 1.02825
C 4.36575 -.14580 2.16700
C 4.21432 1.25093 2.07068
C 2.61388 -3.80242 1.03432
C 4.40445 -2.19754 .73398
C 3.50952 -2.87098 1.60971
C 3.08414 -2.20162 2.79382
