98 

C -2.72217 3.79783 .01511
C -3.30770 3.05271 1.04016
C -4.35634 2.15671 .65766
C -4.67450 .98922 1.45224
C -3.98071 .74982 2.60331
C -1.38297 4.31401 .14750
C .76530 4.26035 1.17339
C -.62150 4.08827 1.31008
C -1.13783 3.19161 2.34163
C -2.50584 2.74466 2.23254
C -2.90058 1.63823 3.00121
C -3.06298 -2.83149 2.20408
C -3.91254 -1.71872 2.11345
C -3.60462 -.61105 2.96538
C -2.38381 -.54085 3.65682
C 1.70780 .42990 3.87646
C .37162 .10729 3.92865
C -.02076 -1.29042 3.69763
C -1.42981 -1.59203 3.58866
C -1.83609 -2.77043 2.94506
C 1.69057 3.65147 2.09045
C 1.23376 2.72913 3.03248
C -.19880 2.45297 3.14467
C -.60096 1.19604 3.72411
C -1.94648 .85203 3.68146
C 2.16646 1.73995 3.46531
C -4.61271 -1.45916 .84750
C -5.00045 -.10788 .54748
C -2.83843 -3.70707 1.06896
C -3.44967 -3.42189 -.14029
C -4.37107 -2.30821 -.24284
C -1.48066 -4.13467 1.08566
C -2.68352 -3.48448 -1.33998
C -1.33331 -3.84342 -1.34247
C -.72469 -4.23880 -.08997
C 2.68192 -3.49780 1.29921
C 1.33164 -3.85693 1.29825
C .72285 -4.23937 .04191
C 1.47868 -4.12303 -1.13263
C 2.71158 -.52885 3.51033
C 2.33636 -1.83403 3.10750
C .93777 -2.21989 3.19071
C .48629 -3.33969 2.37450
C -.87117 -3.59720 2.29133
C 3.19236 -2.49535 2.21258
C -4.25627 -1.78033 -1.57897
C -4.51275 -.41959 -1.84699
C -4.95503 .39977 -.75672
C -3.77347 .19368 -2.89419
C -3.19322 -2.47220 -2.24298
C .86956 -3.57281 -2.33266
C -.48791 -3.31483 -2.41336
C -.93889 -2.18660 -3.21795
C -2.33738 -1.80170 -3.13103
C -2.71245 -.49213 -3.51968
C -3.42422 1.61396 -2.84636
C -3.79866 2.41711 -1.72353
C -4.57395 1.81824 -.69025
C -2.93320 3.46565 -1.36171
C -2.16749 1.77668 -3.45004
C 1.94522 .89032 -3.67511
C .59950 1.23490 -3.71339
C .19722 2.48606 -3.12047
C -1.23519 2.76165 -3.00584
C -1.69216 3.67471 -2.05426
C 1.83458 -2.73940 -2.97755
C 1.42863 -1.55441 -3.60873
C .01946 -1.25166 -3.71435
C -.37296 .14865 -3.92961
C -1.70895 .47094 -3.87460
C 2.38238 -.50242 -3.66461
C 2.89924 1.66949 -2.98599
C 2.50418 2.76788 -2.20519
C 1.13615 3.21670 -2.30962
C .61968 4.10300 -1.26884
C -.76718 4.27415 -1.13037
C 1.38127 4.31567 -.10377
C 3.97940 .77729 -2.59725
C 4.67435 1.00480 -1.44440
C 4.35574 2.16376 -.63759
C 3.30637 3.06382 -1.00990
C 2.72078 3.79859 .02295
C 3.06110 -2.80838 -2.23700
C 3.91109 -1.69670 -2.13414
C 3.60307 -.57973 -2.97362
C 4.37050 -2.31081 .21475
C 3.44809 -3.42334 .10047
C 2.83633 -3.69612 -1.11155
C 5.00079 -.10202 -.55192
C 4.61199 -1.45056 -.86605
C 3.77262 .16327 2.89186
C 4.95560 .39193 .75751
C 4.51233 -.43903 1.83861
C 4.25577 -1.79715 1.55632
C 2.93199 3.45083 1.39573
C 4.57395 1.81104 .70638
C 3.79797 2.39887 1.74572
C 3.42321 1.58384 2.85942
