98 

C 4.79013 1.52505 -.15784
C 4.78117 .52812 -1.17345
C 4.88762 -.84048 -.78321
C 4.07412 .81346 -2.36313
C 3.31801 2.01914 -2.49678
C 3.28182 2.97804 -1.48052
C 4.11115 2.74536 -.33589
C 3.36039 -.22288 -3.04655
C 3.38246 -1.54498 -2.61186
C 4.27977 -1.85692 -1.53728
C 3.97673 -2.94082 -.62937
C 2.93307 -3.77424 -.89259
C 2.15753 .35573 -3.59904
C .96386 -.38908 -3.73924
C .97130 -1.79211 -3.36862
C 2.18613 -2.37063 -2.80973
C 2.06690 -3.53109 -2.04259
C -1.46814 -1.75339 -3.47236
C -.28018 -2.44902 -3.14935
C .91284 2.41759 -3.09851
C 2.13215 1.71641 -3.27948
C -1.54301 3.47863 -2.22517
C -1.57870 2.30729 -2.97277
C -.30957 1.74806 -3.42655
C -.25581 .34943 -3.80186
C -1.45688 -.39121 -3.80165
C .92862 3.55868 -2.20728
C 1.84567 4.40087 -.08686
C 2.07831 3.79930 -1.33761
C -.30950 4.09155 -1.83578
C -.27221 -4.69568 .36712
C 2.11234 -4.28424 .18982
C .86772 -4.65928 -.40332
C -.39672 -3.56250 -2.23326
C .79300 -4.10416 -1.73606
C -1.54137 -4.34961 -.20691
C -1.63378 -3.75439 -1.46812
C -.22884 -4.18621 1.70438
C .91153 -3.56292 2.21353
C 2.15842 -3.69009 1.46766
C 3.27229 -2.78896 1.75887
C 4.21938 -2.49105 .72682
C 3.11175 -1.83521 2.77064
C -1.55502 -3.71664 2.02172
C -2.99272 -1.97099 2.79191
C -1.74776 -2.59599 2.86447
C -.59489 -1.84524 3.32422
C .71351 -2.41875 3.11271
C 1.81852 -1.62583 3.39632
C -3.50534 -3.07439 .66024
C -2.37653 -3.88974 .88263
C -3.92498 -2.27901 1.74792
C -3.79045 -2.64060 -.69950
C -2.73888 -2.06032 -2.84105
C -2.81131 -2.92700 -1.74946
C -4.65521 -1.54083 -.85888
C 3.78163 -.57536 2.72434
C 4.61801 -.23812 1.63805
C 4.83062 -1.22608 .63666
C 4.68239 1.13827 1.25917
C 2.90442 .40875 3.29739
C 2.89556 1.72700 2.86298
C 3.91434 2.10571 1.92070
C 2.55206 3.94131 1.09438
C 3.66712 3.17304 .97334
C -3.14738 -.58861 3.15705
C -2.02315 .21423 3.40669
C -.73145 -.43322 3.57338
C .43898 .39491 3.64595
C 1.68082 -.24524 3.68576
C -.85868 2.39638 2.90189
C .39871 1.81134 3.26683
C 1.63111 2.46427 2.89586
C 1.56278 3.64834 2.13088
C -4.30654 -.09801 2.47781
C -4.35710 1.23410 2.11713
C -3.26741 2.09589 2.46006
C -2.08800 1.61780 3.05950
C -.88646 3.57199 2.07063
C .33206 4.16266 1.69288
C -5.16882 .62940 -.11823
C -5.14296 -.77276 .27118
C -4.75897 -1.12216 1.55341
C -4.83761 1.60853 .79828
C -3.53963 -.87618 -2.91621
C -4.67472 .72369 -1.47909
C -4.49297 -.62109 -1.95278
C -2.51580 3.72890 -1.17332
C -4.08031 2.75674 .36921
C -3.60979 2.86516 -.96014
C -3.81647 1.76276 -1.88542
C -2.78793 1.47750 -2.88561
C -2.72058 .18977 -3.40873
C .52383 4.72181 .34942
C -3.21137 3.12255 1.44383
C -2.04328 3.84445 1.22318
C -1.84435 4.34682 -.09536
C -.51462 4.68731 -.54816
