98 

C -3.28982 -3.53219 -1.72778
C -1.90307 -3.65008 -2.33227
C -.78828 -4.27133 -1.51515
C .64611 -3.94462 -1.85761
C 1.77909 -4.51314 -1.02744
C -1.56693 -2.82316 -3.55928
C -2.40861 -1.58664 -3.86264
C -3.46848 -1.19379 -2.85691
C -4.12223 -2.28504 -2.03131
C -.10634 -2.51711 -3.91037
C .93390 -2.86691 -2.86862
C 2.16095 -2.01333 -2.69714
C 3.30664 -2.51720 -1.85337
C 3.09710 -3.73328 -.97249
C 4.44146 -1.57702 -1.50388
C -.07007 -1.10363 -4.50019
C .91202 1.28364 -4.45457
C 1.10659 -.18431 -4.23292
C 2.21986 -.64459 -3.32015
C 3.28799 .32594 -2.88169
C 4.48698 -.16549 -2.09420
C -4.70075 .62676 -1.46174
C -3.63169 .24066 -2.46587
C -2.58638 1.24495 -2.88347
C -1.62580 .90887 -3.99815
C -1.47689 -.51831 -4.42379
C -.49465 1.86178 -4.32108
C 4.89247 -1.49751 -.04755
C 4.27503 -2.42600 .97574
C 3.53610 -3.65138 .48593
C 4.04040 -1.93113 2.38746
C 4.56261 2.18019 -.95153
C 4.99811 .75580 -.99000
C 5.15770 -.03626 .30628
C 4.43752 .49769 1.53059
C 4.17106 -.43982 2.68826
C 1.90257 2.29043 -3.87699
C 3.05318 1.79424 -3.02856
C 3.75998 2.77213 -2.10796
C 2.87093 -2.49123 3.19728
C 1.93595 -3.46947 2.51505
C 2.46388 -4.29690 1.35719
C 1.44374 -4.92048 .40553
C -.00049 -5.04706 .82501
C 2.28834 -1.34196 4.02232
C .25294 .10711 4.64537
C .78646 -1.20717 4.17259
C -.11456 -2.11141 3.36849
C .44618 -3.36313 2.74625
C -.48489 -4.36648 2.10050
C 4.09746 2.79716 .36447
C 3.75351 1.82547 1.47560
C 2.58647 2.09979 2.39114
C 2.35843 1.22502 3.60080
C 3.08568 -.08021 3.69706
C 1.07274 1.36636 4.38770
C -3.46814 -3.85407 -.24741
C -1.11156 -5.00510 -.22222
C -2.35392 -4.51967 .51685
C -1.23070 .44607 4.52289
C -2.04967 -.38226 3.54856
C -1.52767 -1.69261 3.05960
C -2.41897 -2.59681 2.24586
C -1.96006 -4.00007 1.89511
C -4.29377 -2.75223 .41227
C -3.64648 -2.01520 1.57636
C -4.79941 -1.87571 -.72762
C -5.11782 -.44806 -.46518
C -5.04363 .10091 .95554
C -3.60633 1.67771 3.10001
C -4.06258 -.60512 1.88390
C -3.29830 .20011 2.92024
C -3.33725 3.61150 1.56152
C -4.20564 2.40349 1.89934
C -4.84679 1.60466 .79371
C -1.70792 4.69696 -.15193
C -2.89604 3.80064 .12246
C -1.29979 1.95805 4.33161
C -.66120 4.85739 .95012
C -.85628 4.06771 2.22776
C -2.27077 3.72432 2.65038
C -2.48279 2.57083 3.62486
C 3.07554 3.87760 .00588
C .71554 4.91395 .28965
C 1.84986 4.09157 .86845
C 1.57495 3.15326 2.01976
C .30320 3.29869 2.81762
C .10521 2.51667 4.10332
C 1.09838 3.48196 -3.36488
C .49928 4.84860 -1.22099
C 1.53893 4.18838 -2.09964
C 2.89944 3.88286 -1.51023
C -4.53254 1.92511 -.66482
C -3.32387 2.79940 -.92452
C -2.40462 2.50787 -2.08258
C -.98442 4.62481 -1.49850
C -1.34467 3.51276 -2.46515
C -.38748 3.20528 -3.59869
