98 

C .57579 4.53283 .48290
C 1.67408 4.05024 1.19168
C 2.85278 3.82015 .42896
C 3.93522 3.00788 .93726
C 3.76282 2.34124 2.13370
C -.76727 4.42823 1.00456
C -2.31959 3.15629 2.32211
C -1.02108 3.61791 2.16042
C .07949 2.87419 2.76221
C 1.43319 3.22894 2.38399
C 2.47342 2.40567 2.81014
C 5.06959 1.05143 -.03639
C 4.96849 .37852 1.25568
C 4.52762 2.31465 -.19407
C 4.26987 .98993 2.28570
C 3.29460 .23399 3.01573
C 4.78421 -1.02094 1.01622
C 3.87032 -1.78626 1.76032
C 3.06182 -1.11427 2.77279
C -2.58577 1.94475 3.04113
C -1.54134 1.10023 3.44463
C -.18081 1.59719 3.35864
C .89983 .65968 3.54432
C 2.20031 1.11816 3.36182
C -.68548 -1.27742 3.47548
C .66566 -.78574 3.51731
C 1.75475 -1.64993 3.15700
C 1.46625 -2.97114 2.76976
C 4.32585 -2.29760 -1.01822
C 4.89754 .08063 -1.06888
C 4.91882 -1.22330 -.42053
C 3.61359 -3.26637 -.21898
C 2.23975 -3.63141 1.71559
C 3.36689 -3.01404 1.15222
C 3.62067 -2.12765 -2.27073
C 3.45954 -.83633 -2.83345
C 4.06172 .32285 -2.17886
C 3.41956 1.62484 -2.29695
C 3.73240 2.59975 -1.34691
C 2.32366 -.64037 -3.62841
C 2.55968 -3.06958 -2.28911
C -1.04280 -4.45040 -.53666
C .14953 -4.17687 -1.23674
C .08511 -3.33248 -2.40088
C 1.33770 -2.78874 -2.93320
C 1.30295 -1.62006 -3.71422
C 2.58182 -3.80220 -1.03495
C 1.35200 -4.40199 .93364
C 1.40282 -4.31554 -.48676
C 1.70018 .66438 -3.74377
C 2.14632 1.76308 -3.03049
C 1.16531 2.79066 -2.67243
C 1.52560 3.73757 -1.64127
C 2.76026 3.60721 -.96820
C .51149 4.41313 -.93687
C .31228 .45369 -4.00663
C -.66162 1.38153 -3.63103
C -.22504 2.61364 -2.99488
C -2.60891 2.96605 -2.31229
C -1.23266 3.41327 -2.32120
C -.85307 4.28186 -1.30112
C -3.46725 -.97572 -2.79502
C -2.24792 -.51755 -3.42124
C -2.00117 .88997 -3.48127
C -2.98719 1.78515 -2.91473
C -2.27347 -3.90760 -.93363
C -2.35441 -3.04036 -2.03825
C -1.16742 -2.70809 -2.76270
C -1.16128 -1.44943 -3.52321
C .05868 -.94348 -3.96892
C -3.50037 -2.16079 -2.09044
C -3.47957 3.19129 -1.13764
C -2.94039 3.80674 .02771
C -1.65201 4.41133 -.07804
C -3.31690 3.29716 1.28015
C -4.37885 2.12419 -1.03646
C -4.71561 1.54364 .23332
C -4.22290 2.19311 1.37994
C -4.86691 -.66909 -.91735
C -4.38825 -.05213 -2.14756
C -4.15578 1.28305 -2.20421
C -4.71709 -.58487 1.49811
C -4.97090 .09576 .29549
C -3.08504 -3.67044 .27598
C -4.25554 -1.94132 1.50642
C -4.08001 -2.64910 .30520
C -4.38293 -1.98022 -.91562
C .08359 -4.41605 1.62550
C -3.27521 -2.07365 2.56028
C -2.23939 -2.98800 2.48020
C -2.28645 -3.93122 1.39222
C -1.06961 -4.55728 .91563
C -3.83123 1.43419 2.55435
C -4.07128 .08705 2.61299
C -3.07668 -.78251 3.16700
C -1.79518 -.32564 3.51280
C -.94397 -2.62258 3.04859
C .15309 -3.44720 2.71751
