98 

C 4.16307 -1.26149 1.85233
C 4.52261 -.39003 .82208
C 4.59767 -.91435 -.53772
C 3.79293 -2.62434 1.59955
C 3.84076 -3.11318 .31574
C 4.28752 -2.26947 -.75195
C .43644 -4.53438 -.00905
C 2.75838 -3.95021 -.16386
C 1.63992 -4.22668 .65332
C 1.56368 -3.67312 2.00128
C .25081 -3.36565 2.57361
C 2.69052 -2.97872 2.47823
C .18568 -2.41613 3.59193
C 4.42797 .00022 -1.66051
C 4.39673 1.38381 -1.40793
C 3.58666 -2.70591 -1.94381
C 3.28412 -1.80214 -2.93109
C 3.76024 -.44660 -2.82662
C 2.59896 -3.69204 -1.55916
C 1.31968 -3.71692 -2.15492
C .29458 -4.32325 -1.39828
C 2.79097 .38908 -3.44821
C 2.63900 1.72874 -3.08866
C 3.61078 2.26075 -2.19420
C 3.32494 3.43130 -1.39289
C 2.12501 4.08173 -1.55292
C 1.64418 -.41942 -3.80438
C .33878 .07328 -3.73640
C .14744 1.49530 -3.42253
C 1.30327 2.31452 -3.13789
C 1.11852 3.53352 -2.45312
C -2.29225 1.03802 -3.11967
C -1.15395 1.94597 -3.03520
C -1.28526 3.13066 -2.23330
C -.14615 3.88471 -1.94578
C -3.50756 1.43673 -2.53747
C -2.08103 -.36909 -3.38013
C -.72854 -.87732 -3.56469
C -3.09777 -1.26894 -3.02589
C .95143 -2.66721 -3.10816
C 1.95147 -1.77184 -3.50100
C -1.08990 -4.04784 -1.67339
C -1.45455 -3.06853 -2.62223
C -.42324 -2.24429 -3.23857
C -2.76258 -2.57720 -2.53119
C 3.15000 3.64531 1.05261
C 1.92006 4.40029 .87781
C 3.86032 3.20204 -.06048
C 1.43155 4.63736 -.40250
C .02799 4.52933 -.64710
C 1.00427 3.99157 1.90126
C -.37631 3.93283 1.69149
C -.88678 4.26371 .37542
C -3.56434 2.54781 -1.61027
C -2.42886 3.30905 -1.35306
C -2.21553 3.81221 -.01302
C -3.08362 3.39140 .99992
C 4.32975 1.04320 1.05232
C 3.55519 1.48957 2.19373
C 4.45434 1.90896 -.04721
C 2.98282 2.76917 2.16278
C 1.66372 .78522 3.70900
C 2.95937 .51536 3.09815
C 3.38773 -.80925 2.99363
C .90848 -.29298 4.17141
C 1.32797 -1.64382 3.98254
C 2.55945 -1.90315 3.41460
C 1.65955 3.00857 2.72191
C -2.52410 2.91673 2.25858
C -1.15165 3.05652 2.54695
C -.50996 2.05549 3.34232
C .95128 2.01822 3.38417
C -1.25561 .87490 3.69312
C -.53575 -.28098 4.09544
C -4.38708 1.63239 1.77477
C -3.26274 1.79182 2.67372
C -2.59986 .68290 3.24923
C -4.85754 .37056 1.48889
C -4.17972 -.78393 2.05251
C -3.06532 -.65532 2.90683
C -5.09989 .94600 -.88472
C -4.53079 2.24828 -.59452
C -4.24984 2.61494 .71884
C -5.28973 .03072 .14770
C -4.57518 -1.81398 -1.30569
C -4.29123 -.85252 -2.35273
C -4.51050 .49439 -2.13239
C -4.96700 -1.36744 -.05704
C -1.80460 -4.13665 -.45046
C -3.00676 -3.43788 -.25263
C -3.59406 -2.86606 -1.40791
C -.97216 -1.56556 3.74459
C -2.16045 -1.76307 2.99269
C -2.19787 -2.83453 2.03780
C -.98034 -3.63032 1.81437
C -.85446 -4.31062 .60876
C -4.25738 -1.84744 1.12335
C -3.23999 -2.82880 1.04298
