98 

C -3.75153 2.17775 -2.55519
C -4.34281 1.72695 -1.23556
C -4.90889 .32623 -1.14742
C -4.97597 -.33755 .19658
C -4.74691 .32539 1.33156
C -4.40286 -.73108 -2.11002
C -3.42377 -.33434 -3.18147
C -3.36424 1.12391 -3.59887
C -2.45532 .32107 4.32843
C -3.59728 .70037 3.41790
C -4.32109 -.36648 2.60215
C -4.75597 -1.83022 .05677
C -3.15168 -3.73558 .82218
C -3.95656 -2.50171 1.15978
C -3.62886 -1.70429 2.40662
C -2.38689 -2.04266 3.20011
C -1.89047 -1.09843 4.28007
C -1.23713 -.82011 -4.49327
C -2.29872 -1.27969 -3.52596
C -2.03731 -2.47062 -2.65269
C -3.08688 -2.92297 -1.65632
C -4.30959 -2.05843 -1.40177
C -2.73886 -3.97569 -.62570
C .09947 3.26432 3.60344
C -1.21984 2.52120 3.66918
C -1.30018 1.29600 4.52918
C -.02986 .47144 4.68917
C 2.23458 .08069 3.44685
C 1.25484 1.01667 4.10789
C 1.38367 2.49681 3.92378
C 4.41582 -.30610 2.09444
C 3.44197 .64212 2.74122
C .54114 -1.88218 3.72510
C -.38212 -1.00671 4.54312
C 2.38155 -3.69979 2.20731
C 2.87637 -2.34245 2.66745
C 1.92344 -1.39603 3.36457
C 4.15202 -1.80190 2.05241
C -.01377 -3.09856 3.03168
C -2.01931 -4.19163 1.73952
C -1.48950 -3.16155 2.72095
C .93700 -4.13419 2.47207
C -2.23901 2.72906 2.57177
C -3.56182 1.99483 2.64047
C .38548 4.22394 2.44834
C -.57621 4.26832 1.27664
C -1.80223 3.38531 1.28472
C -.10022 4.89300 -.01954
C 1.87643 4.12194 2.13300
C 3.60733 3.55902 .26155
C 2.35198 4.27656 .70497
C 1.38640 4.77733 -.34715
C 3.50684 2.10000 2.41286
C 2.49133 3.04469 3.02206
C 4.29051 2.56402 1.19516
C -.86993 4.61389 -1.30964
C -2.16198 3.82675 -1.26970
C -2.61923 3.20850 .02995
C -3.87785 2.37638 .05205
C -4.38453 1.79344 1.36076
C -2.70104 3.28492 -2.57935
C .13942 4.27065 -2.40527
C -.22611 3.17985 -3.38998
C -1.69431 2.94921 -3.67975
C -1.07293 .65747 -4.80258
C -2.12149 1.63584 -4.32548
C 3.70837 3.03647 -1.16740
C 2.49665 3.17141 -2.06463
C 1.53967 4.31707 -1.79606
C 2.02700 1.98031 -2.86653
C .77265 2.08829 -3.69852
C .41893 1.00760 -4.70514
C 4.51471 1.73610 -1.14217
C 3.96950 .53402 -1.88724
C 2.83582 .70655 -2.86805
C 2.89271 -1.82711 -3.39528
C 2.42973 -.44751 -3.75323
C 1.16407 -.33046 -4.57329
C 5.06417 -1.08114 -.15252
C 5.08246 .10819 .80195
C 4.94502 1.50556 .30478
C 3.92609 -2.03765 -2.29424
C 4.41712 -.84327 -1.50536
C 2.77193 -4.17888 .81437
C 3.52738 -3.29684 -1.52678
C 3.71542 -3.34564 -.02557
C 4.54919 -2.28131 .65498
C -.98602 -4.86572 .83645
C 2.24803 -3.86182 -2.14537
C 1.16350 -4.34979 -1.20794
C 1.55951 -4.84436 .17016
C .46939 -4.90479 1.23921
C .13647 -1.44420 -4.44778
C 1.86843 -2.96058 -3.31937
C .41383 -2.62725 -3.58201
C -.64175 -3.05613 -2.58569
C -.28804 -4.05754 -1.51358
C -1.36585 -4.64596 -.62653
