98 

C -3.84189 -2.39218 -1.12938
C -4.73875 -1.34021 -.83961
C -5.07022 -.96340 .52179
C -3.25484 -3.13767 -.01260
C -3.59655 -2.74642 1.30849
C -4.52172 -1.66169 1.57433
C -.11278 -4.25807 -1.77274
C -1.52121 -4.00150 -1.53010
C -2.03866 -3.85783 -.18697
C .71859 -4.53928 -.73346
C .23775 -4.38211 .63021
C -1.10519 -3.98228 .90908
C 2.09648 -4.10055 -.77717
C 3.70493 -2.51519 -1.57007
C 2.55509 -3.24655 -1.82729
C -4.71722 1.16441 1.69529
C -4.13669 .43280 2.80603
C -5.15922 .48954 .57794
C -4.04554 -.95426 2.74781
C -2.84944 -1.59104 3.18251
C -3.02415 1.18252 3.28779
C -1.84244 .57310 3.71832
C -1.75975 -.87051 3.68107
C -1.32956 -3.26819 2.12070
C -2.62154 -2.74372 2.32795
C 1.30720 -3.94367 1.40575
C 1.12189 -3.04552 2.49893
C -.21531 -2.71444 2.87600
C -.45219 -1.51800 3.66685
C .63667 -.74887 4.04014
C -2.60386 3.79880 .16017
C -3.68627 2.91241 .24781
C -3.96442 2.38866 1.53439
C -2.96668 2.42828 2.54761
C .56063 .70678 4.02744
C -.61084 1.36228 3.69057
C -.51461 2.58673 2.92545
C -1.74714 3.10775 2.35238
C -1.67483 3.94443 1.22936
C -4.06282 2.14810 -.93800
C -4.85458 1.00167 -.74742
C -4.74318 -.13718 -1.62204
C -3.20336 2.22047 -2.12085
C -3.18654 1.14114 -3.00006
C -3.94106 -.05022 -2.74965
C -.59624 4.52314 -.72463
C -1.88799 4.00822 -1.08052
C -2.05154 3.12650 -2.14975
C .46652 4.34978 -1.57155
C .31583 3.47573 -2.71144
C -.87021 2.78746 -2.94981
C -.40328 4.33769 .68878
C .80396 3.87112 1.21455
C .75856 3.00220 2.39527
C -1.96526 -3.16876 -2.54494
C -3.11517 -2.33220 -2.37643
C -3.16377 -1.16764 -3.15772
C -.76198 1.48424 -3.57291
C -1.96272 .73809 -3.67853
C -1.94704 -.64553 -3.78476
C .49297 .80231 -3.66654
C -.71781 -1.36549 -3.76168
C -.79719 -2.70889 -3.31692
C 1.58800 2.87445 -2.97180
C 1.70287 1.53097 -3.35415
C .52199 -.65945 -3.69335
C 2.93331 .82148 -3.02506
C 2.93179 -.62263 -2.96957
C 1.71010 -1.37158 -3.26644
C 1.59521 -2.71915 -2.79231
C .33119 -3.36230 -2.83729
C 3.95041 -1.25861 -2.24199
C 4.92025 1.59784 -.19882
C 4.85509 .85141 -1.45238
C 4.87892 -.52830 -1.43239
C 4.97881 .91673 1.00014
C 3.94134 1.52061 -2.32434
C 2.52173 3.46375 -2.03805
C 4.06442 2.74206 -.31490
C 3.65194 2.79070 -1.69928
C 2.74242 .09710 3.64265
C 1.83310 1.21784 3.66641
C 1.95902 2.29134 2.76901
C 3.86712 .15028 2.87352
C 4.13800 1.33530 2.08781
C 3.17215 2.35297 1.94286
C 3.15848 3.10544 .70509
C 1.96831 3.85996 .33593
C 1.77990 4.17197 -1.02601
C 3.46899 -2.15654 2.06171
C 2.24641 -2.20578 2.87987
C 1.97523 -1.11823 3.71497
C 4.28767 -1.01858 2.14149
C 5.04167 -1.24077 -.17475
C 4.28157 -2.46167 -.26053
C 3.54211 -2.94777 .83976
C 2.48923 -3.84158 .54585
C 5.06220 -.54046 1.01446
