98 

C -3.33155 -3.29326 1.20370
C -4.03951 -2.08671 1.25576
C -4.74481 -1.71795 .07927
C -5.21607 -.37605 -.09249
C -5.06573 .53404 .94695
C -4.15303 .20394 2.02598
C -3.54503 -1.04985 2.13332
C -2.20268 -3.51619 2.04581
C -1.53842 -2.41508 2.64412
C -3.25485 3.58121 1.43749
C -4.91321 1.94689 .65994
C -4.03349 2.47834 1.68630
C .86156 3.59685 2.11875
C -1.32636 2.54427 2.62619
C -1.94592 3.66699 2.02048
C 2.25170 3.49586 2.01741
C .54002 -3.68709 2.44517
C -.10742 -2.48452 2.81021
C -2.20753 -1.14030 2.68365
C 2.09329 -1.33602 2.68626
C .67545 -1.27564 2.94129
C -.00080 .00479 3.02660
C -1.44737 .05885 2.93501
C -2.10253 1.34042 2.79502
C -3.46634 1.37911 2.42487
C 2.20755 1.15568 2.79833
C .76949 1.23004 2.93214
C .11208 2.48668 2.67175
C 2.92453 2.31557 2.42547
C -3.19116 4.13618 .09718
C -3.76811 3.41812 -.94354
C -4.72309 2.36519 -.65840
C -4.53196 1.35283 -1.68208
C -4.83937 .03839 -1.43236
C -1.87491 4.67647 -.07102
C -1.12686 4.39388 -1.24496
C .24514 4.66733 -1.18887
C .21381 4.53892 1.23407
C -1.18505 4.52871 1.17711
C .89006 4.95954 .05780
C -1.11271 -4.01788 -1.99364
C -2.11193 -3.04674 -2.10005
C -2.77819 -.71370 -2.61305
C -4.03086 -.99672 -2.01115
C -3.33120 1.65918 -2.41713
C -.61118 2.39433 -2.66794
C -1.00064 1.02878 -2.91873
C -2.39409 .66602 -2.78276
C 3.11719 2.03488 -2.41563
C 1.78960 1.71892 -2.78490
C 1.40743 .33015 -2.91527
C .00172 -.01592 -3.00499
C -.40188 -1.40577 -2.90965
C -1.77865 -1.74977 -2.65362
C 2.39416 -.68889 -2.65579
C .60904 -2.43046 -2.77073
C .21763 -3.73645 -2.39690
C -1.57004 3.33382 -2.12235
C -2.91122 2.95416 -2.01894
C .78590 2.74200 -2.62392
C 1.16518 3.97114 -2.02679
C -3.24921 -3.18831 -1.21902
C -4.17176 -2.13670 -1.16653
C -1.08364 -4.98573 -.91243
C -1.99142 -4.84002 .12975
C -3.11765 -3.97134 -.04105
C .30612 -5.28463 -.62873
C -1.47564 -4.61011 1.46770
C -.13062 -4.73184 1.71428
C .76679 -5.23363 .68827
C 2.37725 -4.22669 -1.41490
C 1.08456 -4.61905 -1.65889
C 4.02694 1.02556 -2.00867
C 3.68529 -.32602 -2.10714
C 1.99635 -2.07226 -2.60664
C 2.86893 -3.01250 -2.00176
C 3.85500 -3.25875 .08758
C 2.92765 -4.33840 -.07596
C 2.06753 -4.65785 .96798
C 4.51597 -1.24110 1.19976
C 3.82503 -2.45719 1.25996
C 4.85331 1.54038 -.93228
C 5.18325 .68692 .11372
C 4.99339 -.72367 -.04901
C 4.37835 -1.23551 -1.22281
C 3.92868 -2.55997 -1.16217
C 2.46394 4.15551 -1.44401
C 4.41773 2.89497 -.65503
C 3.44969 3.23086 -1.68488
C 4.72944 1.02594 1.45092
C 4.16279 2.25302 1.69200
C 4.14597 3.27555 .66035
C 2.99753 4.11563 .93778
C 2.28835 4.69536 -.10766
C 1.89999 -3.69656 2.04228
C 2.68219 -2.54261 2.14103
C 4.14682 -.14748 2.03694
C 2.86241 -.11932 2.63782
