98 

C -1.96935 3.90676 1.16116
C -2.52942 3.77555 -.12534
C -3.78333 3.11719 -.21253
C -4.17827 2.41693 -1.41321
C -3.33762 2.40812 -2.49789
C -.55337 4.02921 1.33769
C .34319 4.07859 .24287
C -.18556 3.86684 -1.08110
C -1.61838 3.73353 -1.27134
C -2.06497 3.09302 -2.43588
C 2.08076 3.34242 -1.82632
C .70244 3.33227 -2.07412
C 3.37695 2.61064 1.88012
C 2.10995 3.20940 1.77988
C 1.73285 3.84642 .52696
C 2.61295 3.72038 -.56412
C -3.15890 -1.21702 -3.25625
C -3.81535 -.01084 -2.90424
C -3.15812 1.19177 -3.26704
C .21987 2.39006 -3.05220
C -1.15586 2.36040 -3.26171
C -1.81545 1.18189 -3.74089
C 1.02135 1.22732 -3.39641
C -1.08481 -.01609 -3.88636
C -1.81626 -1.21223 -3.72991
C -4.70836 -.00574 -1.74533
C -4.88329 1.20671 -1.02806
C -3.33888 -2.42635 -2.47562
C -4.17950 -2.42563 -1.39087
C -4.88372 -1.21170 -1.01679
C -1.97113 -3.89585 1.19655
C -3.78473 -3.11590 -.18426
C -2.53123 -3.77485 -.09101
C -2.06660 -3.11131 -2.40721
C 2.07898 -3.35913 -1.79549
C .70063 -3.34966 -2.04334
C -.18740 -3.87576 -1.04579
C -1.62013 -3.74273 -1.23708
C .34164 -4.07783 .27982
C -.55505 -4.01828 1.37413
C 2.42073 -1.25791 -3.04390
C .21841 -2.41575 -3.02973
C -1.15730 -2.38672 -3.23949
C 2.95611 -2.40407 -2.40894
C 1.02065 -1.25707 -3.38486
C 2.95754 2.38132 -2.43125
C 2.42148 1.22985 -3.05542
C .35403 -.01593 -3.68771
C 3.15108 -.01388 -2.94166
C 4.39762 -.01154 -2.26363
C -5.00193 -1.20809 .39684
C -4.99830 .00673 1.12712
C -5.00135 1.21516 .38566
C -4.37386 .01193 2.42311
C -4.32441 -2.39161 .91565
C -2.48464 -3.15218 2.29741
C -3.63912 -2.34437 2.15194
C -3.68709 -1.13736 2.91138
C -3.68640 1.16484 2.90121
C -3.63800 2.36511 2.13072
C -4.32330 2.40258 .89387
C -2.48346 3.17363 2.26885
C -1.36637 -2.71477 3.08340
C -1.31178 -1.41214 3.62942
C -2.52480 -.68972 3.63311
C -2.52448 .72304 3.62701
C -1.31151 1.44460 3.61695
C -1.36569 2.74229 3.05897
C 3.54349 1.40910 2.61120
C -.19762 3.33316 2.51286
C 1.18738 -1.41819 3.28449
C -.03526 -.69302 3.64810
C -.03524 .72466 3.64199
C 1.08488 2.73271 2.65385
C 1.18765 1.44570 3.27218
C 2.42402 .73819 3.16604
C -.19864 -3.31166 2.54269
C 1.08428 -2.71081 2.67800
C 3.54315 -1.38830 2.62318
C 2.42391 -.71218 3.17220
C 3.91954 -3.12259 -.40854
C 2.61157 -3.72738 -.53053
C 1.73164 -3.84417 .56173
C 4.33380 -2.62843 .81459
C 3.37676 -2.59671 1.90348
C 2.10945 -3.19614 1.80877
C 5.45066 -.72558 -.28117
C 4.86860 -1.16450 -1.54373
C 4.14399 -2.33871 -1.60527
C 5.13035 -1.41671 .88493
C 4.14510 2.32169 -1.62658
C 5.45083 .71971 -.28778
C 4.86917 1.14759 -1.55429
C 4.67196 -.68039 2.04178
C 4.67212 .69595 2.03576
C 5.13048 1.42155 .87191
C 4.33399 2.63231 .79057
C 3.92056 3.11597 -.43688
