98 

C 4.79351 2.02204 .52897
C 3.89508 3.15978 .52226
C 5.02154 1.31947 -.65118
C 3.33919 3.61314 -.67454
C 2.00941 4.12488 -.68062
C 3.05290 3.06191 1.67355
C 1.74692 3.53562 1.67956
C 1.23177 4.16675 .48515
C -2.19329 3.93975 -1.02174
C -.81120 4.13777 -.96140
C -.20245 4.33279 .33298
C -.99608 4.17402 1.47870
C -2.49572 1.21988 -3.51554
C -1.97347 2.40939 -2.95951
C -.53163 2.60097 -2.94448
C .00320 3.59787 -2.04780
C 1.37908 3.70022 -1.92458
C -2.78028 3.09092 -2.03443
C 5.05075 -.81229 .57009
C 4.69326 -.09864 1.78482
C 5.09623 -.12950 -.62972
C 4.52909 1.27992 1.75223
C 3.40628 1.85664 2.40771
C 2.42024 1.06781 3.03991
C .81703 2.94001 2.63421
C -.48598 3.39978 2.59922
C 2.89874 -3.71735 -.29080
C 3.81205 -2.67730 -.52521
C 4.41111 -2.10365 .62331
C 3.73195 -2.19482 1.86988
C 2.64951 -3.05469 2.04868
C 2.40499 -3.98956 1.00696
C .13016 -4.34192 1.77335
C 1.10587 -4.59641 .85062
C 1.46947 -1.23451 3.34813
C 1.55004 -2.62666 2.90433
C -2.27099 -.95152 3.63184
C -.96674 -1.51795 3.67337
C -.87089 -2.83545 3.21229
C .37968 -3.38661 2.84200
C 1.09452 1.63313 3.22316
C 2.61033 -.35586 3.10578
C 3.77266 -.89775 2.51646
C -1.55922 2.63610 3.14018
C -1.32894 1.34511 3.63887
C .02249 .79963 3.63686
C .20910 -.66581 3.68150
C -2.45545 .48336 3.64900
C 3.64760 -1.85168 -1.72260
C 4.32804 -.63592 -1.76164
C 1.85987 -4.03351 -1.25101
C 1.65178 -3.20059 -2.37350
C 2.47716 -2.01420 -2.56685
C .37666 -3.24278 -2.94590
C -.72487 -3.83781 -2.26677
C -.57315 -4.36521 -.98121
C .76241 -4.59397 -.55321
C -.12225 -2.14563 -3.72787
C .55910 -.92951 -3.76773
C 1.92118 -.87954 -3.24253
C 2.55048 .41198 -3.11308
C 3.80058 .47906 -2.48194
C 4.29099 1.68695 -1.85016
C 1.74708 1.63580 -3.19191
C 2.25456 2.79798 -2.58673
C 3.51138 2.81905 -1.87707
C -1.55917 -2.21502 -3.66877
C -.22824 .29960 -3.89498
C .33355 1.57167 -3.44576
C -2.30049 -1.06096 -3.85624
C -1.61238 .19372 -4.01248
C -1.25222 -4.19553 1.35596
C -1.62231 -4.11406 .00662
C -2.95014 -2.84038 -1.72919
C -1.93017 -3.14109 -2.65824
C -3.54175 -2.67232 .68271
C -2.79851 -3.31607 -.35015
C -4.47982 -1.63457 .33359
C -4.57841 -1.14616 -.95892
C -3.79485 -1.70658 -2.01744
C -3.47456 -.84819 -3.09828
C -4.19100 -.46521 2.46740
C -3.30512 -1.53207 2.88735
C -3.03870 -2.66069 2.04151
C -1.88857 -3.38174 2.33783
C -4.78224 -.52784 1.23929
C -2.75503 2.96043 2.41623
C -3.74982 1.99635 2.19647
C -3.63571 .79281 2.95092
C -4.04403 2.86743 -.09366
C -3.00037 3.84769 .14855
C -2.39386 3.92393 1.39282
C -4.94257 .68125 .44267
C -4.42762 1.94760 .89310
C -3.64561 .60130 -2.98150
C -4.87531 .29642 -.90023
C -4.33356 1.17873 -1.88433
C -3.94319 2.46904 -1.47259
