98 

C 3.87101 2.49458 -1.88871
C 3.38673 3.28134 -.69149
C 4.10896 3.10374 .63103
C 3.36467 3.47258 1.91035
C 2.10475 4.29200 1.83771
C 2.97005 2.31802 -3.11146
C 1.51732 2.73555 -3.00094
C 1.03310 3.49713 -1.79222
C 2.00593 3.89614 -.71202
C 1.53221 4.69847 .48384
C -1.38983 3.58911 -2.79374
C -.40610 3.93385 -1.69528
C -.94108 2.57640 -3.86914
C .51401 2.17105 -3.97773
C .81233 .85222 -4.66605
C -1.60943 3.96335 2.46735
C .96854 4.02061 2.81501
C -.28066 4.57630 2.14065
C -.94732 4.40587 -.36508
C .02720 4.91103 .68488
C -2.67064 3.89648 1.48049
C -2.34799 3.97987 .05269
C -1.72514 2.81735 3.40913
C -.47462 1.97536 3.60055
C .87392 2.59635 3.35515
C 2.12082 1.72762 3.36805
C 3.44587 2.31062 2.89493
C 4.46338 1.33610 2.30722
C 1.99048 .22990 3.55748
C 3.22364 -.65424 3.47987
C 4.38583 -.12928 2.64470
C .50022 -1.89241 3.50875
C -.85357 -2.55312 3.64368
C -1.95576 -.17608 3.51947
C -.59783 .46852 3.63050
C .63478 -.39387 3.59109
C -2.10983 -1.67620 3.65156
C -4.63794 2.26880 1.01400
C -3.71896 2.93879 1.99817
C -3.08522 2.14274 3.13714
C -5.02827 .80629 1.20332
C -4.12765 -.03157 2.09269
C -3.10428 .63565 2.98320
C -2.74378 3.08453 -2.28970
C -3.22481 3.30937 -.93201
C -4.46489 2.55636 -.47169
C 3.70124 -3.48484 .95094
C 4.78533 -1.17381 1.60551
C 4.04472 -2.45295 1.99634
C 1.66179 -2.69343 2.98175
C 3.03810 -2.12364 3.08775
C 2.47432 -4.37136 1.12980
C 1.39380 -3.88036 2.08351
C 3.85308 -3.12962 -.53273
C 4.23496 -1.71429 -.90808
C 4.68268 -.73595 .15209
C 4.82347 .72880 -.20873
C 4.81527 1.77279 .89015
C 4.60724 1.18134 -1.63943
C 2.61195 -1.92274 -2.92162
C 3.74547 -1.19170 -2.23751
C 4.18048 .17834 -2.71137
C 1.91546 -1.30803 -4.11983
C 2.15807 .17477 -4.40685
C 3.23999 .91916 -3.65894
C .56994 -5.11917 -.53295
C 1.98707 -4.68573 -.27921
C 2.62142 -3.68464 -1.19478
C -.10944 -4.63392 -1.81724
C .57875 -3.50583 -2.57129
C 1.98755 -3.10802 -2.22631
C -1.13775 -3.77401 2.76866
C -.04193 -4.33580 1.88180
C -.43209 -5.08257 .61684
C -1.59117 -4.45527 -1.48201
C -3.72823 -2.99333 -1.46142
C -2.39612 -3.32741 -2.09596
C -1.70025 -2.29800 -2.95567
C -.26299 -2.52794 -3.35850
C .41312 -1.55679 -4.26774
C -2.55885 -3.64704 2.22413
C -3.92609 -3.30544 .02018
C -2.83417 -4.01929 .78369
C -1.78772 -4.77078 -.00309
C -5.30044 .25364 -.19220
C -5.08823 -1.21366 -.46790
C -4.69049 -2.15619 .66595
C -4.08515 -1.53404 1.91204
C -3.16724 -2.36591 2.78647
C -3.11366 1.86274 -3.01079
C -4.02097 .84163 -2.38593
C -4.88661 1.29138 -1.22814
C -.26200 -.22918 -4.58162
C -2.38427 -.98691 -3.28410
C -1.59087 .09713 -3.98853
C -1.95590 1.44479 -3.82871
C -4.42191 -1.66689 -1.76573
C -3.66426 -.61951 -2.55697
