98 

C -1.62867 2.13955 -3.57783
C -1.17339 3.13794 -2.71870
C .27465 3.26980 -2.49009
C .72211 4.07490 -1.35693
C -.21140 4.56368 -.42764
C 2.05308 3.92882 -.89293
C -.72941 1.17347 -4.12273
C 1.39880 .10455 -4.11875
C .65966 1.28288 -3.92670
C 1.18634 2.33952 -3.08246
C 2.54222 2.16245 -2.53175
C 2.94632 2.98749 -1.49805
C 2.38940 4.03902 .47483
C 1.37203 4.24062 1.44645
C .08258 4.56867 .97209
C 1.45417 3.52233 2.67574
C 3.52147 3.15401 .73451
C 4.24319 1.17003 1.91745
C 3.60181 2.41385 1.95505
C 2.55023 2.58546 2.91872
C 4.48259 1.26720 -.53461
C 3.89045 2.55587 -.48123
C 4.78799 .65066 .69711
C 4.23160 .44331 -1.70749
C 2.72307 -.05972 -3.56586
C 3.27893 .89706 -2.71463
C 4.49210 -.93947 -1.60055
C .28874 2.98937 3.25994
C -1.00343 3.21573 2.72032
C -1.09305 4.13920 1.66776
C -2.02336 2.17998 2.87263
C -3.21082 2.24920 2.02970
C -4.06535 1.14416 1.98732
C .62488 1.71465 3.83221
C -.27930 .68222 3.89841
C -1.67732 .94680 3.51078
C -2.06062 -1.50240 3.60793
C -2.57287 -.17895 3.41289
C -3.75367 -.06256 2.67304
C 3.73963 .05417 2.69525
C 2.55533 .16758 3.42898
C 2.04177 1.49003 3.62276
C 1.65999 -.95938 3.51949
C .25955 -.69592 3.89853
C -.64474 -1.72748 3.82458
C -3.23979 3.16002 .88390
C -2.16124 4.04716 .70108
C -4.79838 .78163 .78787
C -4.70076 1.55918 -.33530
C -3.94824 2.79468 -.28006
C -4.79024 -.65399 .66735
C -4.47857 -1.26720 -.56400
C -3.88647 -2.55568 -.50962
C -2.56557 -2.59540 2.89855
C -3.61177 -2.42020 1.92902
C -4.25341 -1.17592 1.89006
C -3.52433 -3.15631 .70704
C -3.77030 1.90000 -2.41300
C -3.38409 3.01652 -1.57298
C -2.12482 3.63581 -1.71866
C -1.62140 4.29141 -.57730
C -2.90144 1.46879 -3.38484
C -4.22120 -.44049 -1.73378
C -4.48174 .94219 -1.62509
C -2.70248 .06698 -3.58257
C -3.26307 -.89180 -2.73670
C -2.93691 -2.98458 -1.52215
C -2.52742 -2.15762 -2.55202
C -1.16840 -2.33403 -3.09523
C -.63689 -1.27566 -3.93382
C -1.37495 -.09684 -4.12696
C .75356 -1.16565 -4.12110
C -2.04693 -3.92695 -.91386
C .21492 -4.56328 -.43726
C -.71330 -4.07261 -1.37072
C -.25946 -3.26557 -2.49965
C 1.19038 -3.13312 -2.71952
C 1.65064 -2.13240 -3.57316
C -1.46787 -3.53116 2.65941
C -.08679 -4.57206 .96072
C -1.37886 -4.24529 1.42849
C -2.39072 -4.04025 .45175
C 4.05635 -1.15142 2.00888
C 3.20238 -2.25740 2.04371
C 2.01046 -2.19120 2.88020
C 1.08532 -4.14559 1.66424
C .99067 -3.22603 2.71922
C -.30503 -3.00043 3.25112
C 3.95154 -2.79563 -.26351
C 4.70465 -1.55997 -.31101
C 4.79642 -.78562 .81471
C 2.15879 -4.05068 .70370
C 3.23732 -3.16480 .89531
C 2.92191 -1.46161 -3.37053
C 1.62580 -4.29116 -.57828
C 2.13615 -3.63302 -1.71511
C 3.39494 -3.01402 -1.56034
C 3.78612 -1.89525 -2.39507
