98 

C -4.50165 2.22170 -.78474
C -.88455 4.35406 -.86406
C -2.17397 3.84666 -.98091
C -2.93420 3.79321 .21899
C -4.11673 2.97099 .31116
C -.25273 4.48967 .41003
C -.86758 3.95310 1.55339
C -2.25984 3.74079 1.46541
C -.07151 3.18666 2.48987
C -.76648 2.17294 3.28829
C -.01422 1.19740 3.91325
C 1.15704 4.39642 .21989
C 1.97404 3.72563 1.12772
C 1.34892 3.11531 2.30984
C 3.39045 1.71885 2.59873
C 2.10278 2.10793 3.03862
C 1.40789 1.16867 3.82264
C 3.96385 2.26628 1.38026
C 3.26163 3.22118 .62377
C 3.52861 3.24360 -.76746
C -5.15269 .35188 .66437
C -4.61445 1.08252 1.79417
C -5.07495 .90300 -.60304
C -4.13199 2.37366 1.62933
C -2.93632 2.76837 2.30331
C -3.88099 .16659 2.60668
C -2.67618 .51490 3.22268
C -2.18887 1.87713 3.07719
C -3.78456 -3.06372 .04660
C -4.53905 -1.90003 -.23958
C -4.81804 -1.04945 .85336
C -4.07043 -1.16270 2.06135
C -.48113 -.17543 4.01605
C -1.73597 -.55921 3.54028
C -1.88495 -1.88017 2.99726
C -3.10354 -2.16814 2.23505
C -3.10317 -3.20175 1.27902
C -4.42512 -1.30758 -1.57221
C -4.63128 .07480 -1.71125
C -2.98230 -3.73186 -.96651
C -2.83131 -3.15287 -2.20033
C -3.53212 -1.91501 -2.50430
C -1.82492 -4.30795 -.30928
C -.55284 -4.36297 -.94036
C .54693 -4.53586 -.09385
C .63767 -1.02385 3.93904
C .57289 -2.26393 3.28730
C -.71866 -2.72088 2.83618
C -.75946 -3.80244 1.85281
C -1.91384 -3.99314 1.06354
C .44012 -4.27901 1.30881
C -2.66927 -1.12897 -3.28732
C -2.66903 .28525 -3.20598
C -3.75134 .86507 -2.52564
C -3.63739 2.16895 -1.95449
C -1.33765 2.33986 -2.83273
C -2.44862 2.89141 -2.05004
C -1.42845 -1.85041 -3.46575
C -.20324 -1.17451 -3.63750
C -.19720 .27515 -3.68512
C -1.42687 1.02047 -3.35558
C 2.24288 .15677 -3.69420
C 1.05238 .94396 -3.67555
C 1.15048 2.31922 -3.21796
C -.03356 2.99251 -2.75053
C .12817 4.06383 -1.84789
C -.35064 -3.65045 -2.18915
C -1.50716 -3.07443 -2.79952
C 1.87408 -4.19599 -.51714
C 2.09163 -3.45605 -1.68079
C .92697 -3.10700 -2.50691
C .98482 -1.90941 -3.32858
C 2.20536 -1.22361 -3.45290
C 1.37903 4.30741 -1.21496
C 2.51430 3.70704 -1.69815
C 2.41502 2.79098 -2.78266
C 4.15078 -.44267 -2.45681
C 3.49410 .64591 -3.15663
C 3.56493 1.91972 -2.67279
C 4.83895 -1.33179 -.32523
C 4.79108 -.22973 -1.20438
C 2.63862 -3.93882 .68692
C 3.75306 -3.14037 .64205
C 4.15581 -2.54655 -.61931
C 3.31608 -2.65350 -1.75293
C 3.38363 -1.60318 -2.68925
C 3.02998 -1.96232 2.68910
C 1.82292 -2.78512 2.71184
C 1.72210 -3.82102 1.77990
C 4.00172 -2.21287 1.69904
C 4.74721 .11497 1.64648
C 3.85170 .39084 2.74816
C 2.99890 -.62337 3.26993
C 1.82560 -.19151 3.89104
C 4.80318 -1.14748 1.12246
C 4.22353 2.17400 -1.39422
C 4.78943 1.12363 -.64086
C 4.76329 1.27144 .77130
