98 

C -3.22001 1.64506 2.68982
C -2.00862 2.45650 2.82438
C -4.14767 1.98316 1.68752
C -1.88261 3.59001 2.02541
C -.59047 4.10345 1.64687
C .60338 3.49764 2.04980
C .52252 2.34491 2.94312
C -.77715 1.87890 3.35898
C -.87552 .59698 3.93253
C 2.92730 1.81474 2.40150
C 1.67544 1.48625 3.08428
C 1.50104 .14870 3.56658
C .22854 -.25974 3.98549
C 3.93348 .83849 2.34334
C 2.97465 2.90093 1.44649
C 1.79249 3.72268 1.24191
C 3.94749 2.85595 .42276
C 1.65163 4.38828 .00766
C -4.87586 .96251 .95907
C -2.07028 -.21916 3.80117
C -3.21876 .26426 3.16195
C -4.05518 -.69924 2.53558
C -4.84813 -.33948 1.37729
C -.23965 -1.62001 3.78094
C -1.66457 -1.57294 3.66761
C -2.35545 -2.46823 2.82764
C -3.62317 -2.04023 2.36015
C .52585 -2.53710 3.08081
C -.14674 -3.44897 2.15297
C 3.68871 -.52775 2.74828
C 2.44306 -.90741 3.23930
C 1.95037 -2.24284 2.94465
C 2.70653 -3.05485 2.09804
C -3.44399 -3.43934 .36314
C -4.77917 -1.41553 .41333
C -4.14577 -2.50853 1.08441
C .62753 -4.00182 1.06905
C -1.57480 -3.42091 2.04576
C -2.17527 -3.95895 .87154
C 2.03432 -3.84103 1.08141
C -3.35667 -3.31689 -1.05937
C -3.79757 -2.15436 -1.72011
C -4.54751 -1.16374 -.95416
C -4.58039 .23222 -1.39999
C -4.79698 1.26054 -.45602
C -3.86106 .59184 -2.56734
C -2.14001 -4.00745 -1.44662
C -1.45582 -3.62622 -2.56761
C -1.90246 -2.47233 -3.31456
C -3.05142 -1.73498 -2.91369
C -3.08264 -.38896 -3.29635
C .01565 -4.29322 -.18976
C -1.39840 -4.33633 -.23594
C -.00811 -3.62820 -2.56547
C .74103 -4.00454 -1.40978
C -3.20231 1.83399 -2.67371
C -3.28588 2.80704 -1.65280
C -4.17199 2.53961 -.58899
C -3.86963 3.02243 .74679
C -2.79040 3.84672 .94094
C -.93527 3.49865 -2.24433
C -2.14357 3.68919 -1.44363
C -2.02070 4.31785 -.19041
C .23771 4.10476 -1.82166
C .35262 4.69221 -.51182
C -.73416 4.67258 .32731
C -.74455 -1.81647 -3.79492
C -.68799 -.41004 -3.91905
C -1.91791 .26335 -3.80309
C -1.96423 1.62505 -3.40577
C .48923 1.68848 -3.33457
C -.80592 2.34125 -3.13522
C .41458 -2.54636 -3.34677
C 1.65318 -1.89701 -3.12008
C 1.76121 -.47887 -3.35355
C .54632 .29933 -3.65712
C 3.99231 -.57707 -2.34404
C 2.94247 .19221 -2.91804
C 2.91991 1.62191 -2.66587
C 1.68599 2.35637 -2.84813
C 1.53628 3.58278 -2.18145
C 4.01225 -3.04908 .17879
C 2.77943 -3.75414 -.10867
C 2.09802 -3.59298 -1.34919
C 4.55553 -2.20619 -.76957
C 3.79566 -1.92941 -1.98007
C 2.58475 -2.57957 -2.27041
C 5.19353 -.58549 .96385
C 4.48374 -1.39745 1.92990
C 3.96345 -2.63165 1.56392
C 5.21721 -.98198 -.37221
C 4.84734 1.33145 -1.10043
C 4.85505 1.75609 .29219
C 4.91484 .80240 1.29096
C 4.93955 -.00485 -1.40692
C 2.42848 3.94857 -1.12632
C 3.91009 2.16597 -1.81482
C 3.57573 3.23227 -.92404
