98 

C 1.92551 -3.33035 2.22660
C 2.77617 -2.22223 2.27880
C 2.41141 -1.12293 3.14324
C 3.14319 .13204 3.00137
C 4.11609 .25263 2.00079
C 2.55622 1.34554 3.47353
C .69774 -3.36286 2.92297
C .23678 -2.25194 3.65558
C 1.12439 -1.12508 3.80508
C -.84681 .28043 4.36392
C .54996 .14336 4.24599
C 1.26341 1.34608 4.03454
C -1.72494 -.81649 4.15223
C -1.21236 -2.09359 3.79328
C -2.07283 -2.93003 3.05032
C 2.73227 2.58624 2.77041
C 3.56090 2.65219 1.61948
C 4.30518 1.49637 1.27827
C 3.16276 3.51243 .57179
C 1.50644 3.30127 2.82367
C 1.03991 4.07160 1.72496
C 1.94994 4.27530 .66547
C .14572 4.66697 -.91595
C 1.47668 4.46733 -.68473
C -1.51425 1.47096 3.91358
C -.78863 2.56440 3.37806
C .59385 2.54964 3.62094
C -1.32216 3.29977 2.22865
C -.40260 4.10487 1.45388
C -.80801 4.53417 .17800
C 3.32927 3.10696 -.79368
C 3.93354 1.89126 -1.13013
C 4.58706 1.18707 -.07718
C 4.77669 -.24311 -.15982
C 4.49339 -.89991 -1.32825
C 2.23363 3.62366 -1.56634
C 1.61953 2.87394 -2.58156
C 2.20933 1.58383 -2.95446
C 3.41515 1.15438 -2.28257
C 3.82435 -.18728 -2.41672
C .02920 .95311 -4.03451
C 1.41589 .62523 -3.67946
C 1.83424 -.75678 -3.73203
C 3.05437 -1.12165 -3.13076
C -.84488 -.09880 -4.35621
C -.55889 2.21598 -3.63426
C .23522 3.17599 -2.89608
C -1.96848 2.31211 -3.54995
C -.44169 4.13988 -2.11132
C 2.26465 -3.37560 -2.56641
C 3.99040 -2.23769 -1.27748
C 3.24914 -2.43136 -2.50507
C 1.05274 -3.09284 -3.30095
C -.46203 -1.47426 -4.18419
C .85400 -1.82351 -3.92205
C 1.91641 -4.12993 -1.38521
C 2.52976 -3.84093 -.13886
C 3.55807 -2.81130 -.06616
C 3.70972 -2.03715 1.16453
C 4.39654 -.82685 1.09400
C 1.78446 -4.13215 1.01309
C .52433 -4.38920 -1.45384
C -.26098 -4.52434 -.29936
C .44225 -4.57781 .93307
C -1.54669 -3.94191 2.17088
C -.20469 -4.20640 2.16895
C -1.55499 -2.18485 -3.58294
C -1.32199 -3.20259 -2.65020
C -.00782 -3.73970 -2.63707
C -2.16578 -3.29750 -1.46986
C -1.64891 -4.04378 -.31737
C -2.27674 -3.88047 .91603
C -2.64391 -1.27698 -3.43277
C -3.45850 -1.30371 -2.30055
C -3.23923 -2.35963 -1.30173
C -4.48270 -.96848 .35111
C -3.83250 -2.19081 .01765
C -3.34513 -2.95166 1.09328
C -3.77824 1.15526 -2.60369
C -2.79932 1.15481 -3.67094
C -2.24505 -.03335 -4.06793
C -4.56971 .11031 -.60296
C -4.10362 -.04146 -1.91801
C -1.84248 4.01487 -1.82913
C -4.42199 1.33413 .09542
C -3.81691 2.45120 -.50253
C -3.64699 2.38769 -1.90580
C -2.59775 3.14501 -2.55913
C -2.77355 1.10335 3.40215
C -4.22221 1.03488 1.48549
C -3.32129 1.77218 2.26418
C -2.58335 2.89287 1.65989
C -2.91779 3.27909 .30626
C -2.03889 4.12891 -.38382
C -3.25388 -2.40235 2.42233
C -4.36042 -.39796 1.63770
C -3.68382 -1.08837 2.67898
C -2.93180 -.31090 3.59923
