98 

C -1.40612 -3.47813 2.44670
C -1.29298 -2.29562 3.21649
C -2.46491 -1.53732 3.34939
C -2.40412 -.13104 3.64508
C -1.15552 .51430 3.84103
C -1.16238 1.90321 3.66653
C -.24895 -4.08074 1.85846
C 1.29230 .49133 3.48971
C 2.44542 -1.61858 2.81359
C 1.01514 -3.54706 2.04265
C 1.16691 -2.32256 2.85416
C .02345 -1.66593 3.37225
C .08627 -.22885 3.69602
C 3.50989 -2.17073 2.06149
C 3.25066 -3.19785 1.06815
C 2.02533 -3.87767 1.03433
C 1.62707 -4.39442 -.21674
C -3.47099 .50974 2.99307
C -2.26223 2.57563 3.02828
C -3.36021 1.85083 2.54113
C -1.71629 3.69714 2.29891
C -2.27095 4.04596 1.08542
C -.29450 3.69678 2.45629
C -1.40054 4.33187 -.02310
C -.01111 4.29403 .09786
C .56290 4.02722 1.40607
C 3.51567 1.92689 2.35810
C 2.30267 2.59286 2.49302
C 1.94733 3.59520 1.51378
C 2.76870 3.75262 .39010
C 2.50627 -.22287 3.14094
C 1.25108 1.93304 3.25941
C .03985 2.59428 3.34242
C 3.63430 .52525 2.72975
C -3.43636 3.34041 .59104
C -3.95802 2.21110 1.25439
C -4.61755 1.18004 .45964
C -3.36723 3.39463 -.83827
C -3.98410 2.42309 -1.58480
C -4.67654 1.35516 -.93430
C -1.23320 1.46335 -3.86987
C -3.31942 1.90797 -2.77506
C -2.01311 2.35136 -3.12609
C -2.05384 3.89624 -1.22639
C 2.15293 3.82236 -.93185
C .75932 3.97209 -1.08867
C .12889 3.39269 -2.23330
C -1.33406 3.34610 -2.28729
C .90549 2.49472 -3.05895
C .21133 1.53052 -3.84794
C -4.72774 -.19650 .97713
C -4.20083 -.48834 2.23681
C -4.61408 .22630 -1.85041
C -4.66386 -1.04717 -1.38039
C -4.81071 -1.28699 .04167
C -3.70038 .55842 -2.93766
C -2.78006 -.40575 -3.44086
C -1.60604 .09728 -4.01581
C -4.22070 -2.53096 .30207
C -3.59294 -2.78995 1.55718
C -3.60707 -1.76264 2.52380
C -2.50608 -3.69273 1.58434
C -3.58862 -3.01394 -.93925
C -2.40226 -3.81062 -.90796
C -2.00353 -4.31934 .35665
C .23903 -4.70136 -.46844
C -.66236 -4.67795 .59325
C -2.75670 -1.74772 -2.88529
C -3.79417 -2.07721 -1.93837
C -.40855 -.67999 -4.04409
C -.33271 -1.93377 -3.46318
C -1.54917 -2.50379 -2.87433
C -1.41569 -3.60718 -1.93244
C -.13096 -4.14633 -1.71857
C .71114 .23827 -4.00699
C 1.97892 -.14093 -3.48876
C 2.16095 -1.49949 -3.06125
C .99947 -2.40456 -3.06370
C 1.05898 -3.55136 -2.29682
C 4.25801 -.80311 -1.99056
C 3.30809 -1.82070 -2.26406
C 4.12141 2.62555 -1.11808
C 2.92294 3.05218 -1.81793
C 2.27877 2.23146 -2.77752
C 4.68965 1.40974 -1.41461
C 4.02978 .53397 -2.37259
C 2.83552 .90603 -3.03177
C 5.10590 .95773 .96169
C 4.41457 2.19211 1.27942
C 4.00252 3.05172 .26206
C 5.26306 .58513 -.36824
C 4.83108 -1.76804 .18882
C 4.57636 -1.37714 1.56633
C 4.66296 -.03727 1.92931
C 5.05526 -.79765 -.76310
C 2.15556 -3.79979 -1.40110
C 3.26855 -2.95710 -1.36060
C 3.95509 -2.87783 -.11427
