98 

C 4.20991 1.72732 -1.35932
C 3.95630 .68903 -2.24785
C 4.40016 -.62836 -1.85499
C 3.75125 -1.81638 -2.37552
C 2.80970 -1.70141 -3.34916
C 3.40356 2.91185 -1.35328
C 2.27561 3.03861 -2.16190
C 1.94636 1.93629 -3.07328
C 2.82136 .81464 -3.15234
C 2.33109 -.38303 -3.75625
C -.36667 2.79204 -3.18393
C .57554 1.79085 -3.53560
C -.03247 3.88142 -2.28866
C 1.23620 3.97811 -1.72355
C 1.31790 4.54952 -.40987
C .15171 -3.98782 -2.13571
C 1.46191 -3.54015 -2.30087
C 1.68708 -2.61982 -3.37697
C .60805 -1.92509 -3.93742
C -.73152 -2.27509 -3.65691
C -.92994 -3.44649 -2.90433
C -3.17465 -2.73264 -2.27811
C -2.13597 -3.62764 -2.13511
C .05759 .52363 -3.93312
C .99191 -.52691 -4.11412
C -1.72149 2.50125 -3.03904
C -2.23297 1.18851 -3.23487
C -1.35057 .18808 -3.73510
C -1.74541 -1.21959 -3.64059
C -2.97832 -1.52391 -3.06907
C 2.34226 -3.52358 -1.14873
C 3.55888 -2.75540 -1.27275
C -.34876 -4.34257 -.83997
C .42821 -4.20026 .29908
C 1.83476 -3.81425 .14870
C 2.56184 -3.32495 1.31889
C 1.88284 -3.27578 2.54935
C -1.71379 -3.69887 1.56582
C -.28174 -3.99211 1.56286
C .47638 -3.60888 2.66596
C -2.24281 -2.98595 2.64633
C -1.39703 -2.43718 3.65914
C -.07101 -2.77757 3.69684
C -1.78531 -4.10836 -.83778
C -3.62513 -2.81916 .14932
C -2.46036 -3.67888 .30813
C -4.69482 -.73171 1.00253
C -4.03862 -1.96351 1.26243
C -3.33859 -2.05485 2.47147
C -3.98714 -2.41199 -1.15200
C 3.71515 -2.47204 1.15697
C 4.19855 -2.21950 -.16911
C 2.14885 -2.24437 3.49782
C 3.15516 -1.33198 3.25950
C 4.00762 -1.50075 2.14158
C .90196 -1.78159 4.05185
C 4.48543 -.16767 1.77289
C 4.83922 .14097 .43660
C 4.75794 -.90618 -.53645
C 4.64867 1.46354 -.00224
C 3.79427 .77647 2.56459
C 3.47477 2.06058 2.08317
C 4.06311 2.44351 .85558
C 2.37469 4.14763 .48635
C 3.42548 3.42652 .00775
C -1.78217 -1.07026 3.89467
C -.83416 -.04188 3.95131
C .56933 -.41312 4.05497
C 1.60189 .55418 3.70090
C 2.88786 .07527 3.43700
C -.17633 2.26071 3.15666
C 1.23161 1.88739 3.21859
C 2.20509 2.65466 2.49742
C 1.78014 3.80189 1.76954
C -2.55920 1.50146 3.03089
C -1.21731 1.29097 3.48748
C -2.86975 2.69262 2.31066
C -1.88726 3.61510 1.98945
C -.54405 3.43529 2.42563
C .44233 4.16998 1.71591
C -4.56207 1.57981 .93902
C -4.43780 .41301 1.79508
C -3.46923 .37577 2.83594
C -3.05046 -.89093 3.24367
C -3.84012 2.69757 1.22142
C -4.53270 -1.08722 -1.40530
C -4.71447 1.12939 -.43560
C -4.92348 -.28520 -.36549
C -2.27358 3.39833 -2.03513
C -3.30971 3.50096 .14343
C -3.31335 2.99174 -1.19910
C -3.97265 1.71203 -1.47414
C -3.45625 .83931 -2.52969
C -3.82587 -.50699 -2.51606
C .16325 4.70896 .37203
C -2.18683 4.16864 .65505
C -1.12962 4.58011 -.19779
C -1.21411 4.23634 -1.56680
