98 

C 2.77248 3.63008 .54119
C 3.40946 2.58486 1.21206
C 4.23045 1.66020 .43744
C 4.50183 .32777 .97204
C 4.70128 -.75886 .07956
C 4.03088 .00607 2.24815
C 1.57301 2.71502 2.94110
C 2.85646 2.18250 2.50661
C 3.29148 .96521 3.05169
C .83840 2.00210 3.89195
C 1.28919 .75366 4.40715
C 2.48308 .21534 3.95436
C .84021 3.65724 2.09820
C -.63281 3.66175 2.09486
C 1.50957 4.17951 .99839
C -1.29097 4.24519 1.00610
C 3.53519 -1.29609 2.54531
C 3.44614 -2.28442 1.55636
C 4.16375 -2.03582 .36322
C 2.29254 -3.18531 1.54491
C 1.98438 -3.88509 .31142
C .72018 -4.47625 .17784
C 2.53323 -1.17192 3.57135
C 1.39862 -1.98058 3.57666
C 1.28649 -3.04610 2.56359
C -1.16571 -3.13531 3.06321
C -.00733 -3.64144 2.35654
C -.26962 -4.32443 1.16914
C -1.06856 -2.06313 3.92942
C .19992 -1.44193 4.20480
C .15726 -.09651 4.58341
C 2.69207 -3.55469 -.93107
C 3.75508 -2.64331 -.88884
C .02969 -4.55512 -1.09681
C .65210 -4.14177 -2.23632
C 2.00862 -3.65524 -2.16894
C -1.89833 -1.84841 -3.66224
C -.07772 -3.33550 -3.19993
C -1.45063 -2.98394 -2.98744
C -2.48032 -3.08343 2.41818
C -2.63877 -3.45344 1.07191
C -1.57738 -4.21738 .49712
C -1.38046 -4.25107 -.87218
C -3.18522 -2.59222 -1.23760
C -2.12071 -3.38202 -1.76413
C 2.12551 -2.62536 -3.13543
C 3.02547 -1.56529 -2.97498
C 3.97801 -1.71295 -1.93538
C 4.62649 -.56489 -1.35383
C 4.36896 .68021 -1.85439
C .82492 -2.40941 -3.74235
C -.96301 -.90299 -4.22769
C .40771 -1.09735 -4.11812
C 1.27518 .04869 -3.87078
C 2.62845 -.21616 -3.40186
C 3.37274 .85091 -2.90615
C 2.77773 3.71610 -.89209
C 4.28133 1.81988 -.96160
C 3.46078 2.78104 -1.62640
C -1.53378 .40601 -4.14213
C -.75912 1.52037 -3.80034
C .69102 1.35067 -3.69649
C 1.46222 2.40602 -3.06998
C 2.80154 2.14753 -2.75464
C 1.48741 4.17139 -1.34501
C .79294 3.51108 -2.37539
C .79912 4.63709 -.17133
C -.56641 4.68902 -.16351
C -1.29484 4.30248 -1.33863
C -2.80311 2.49985 -2.82837
C -.65657 3.60094 -2.38515
C -1.43086 2.63188 -3.13708
C -4.19480 2.08719 -.97671
C -3.35904 3.07725 -1.63468
C -2.60204 3.92562 -.87961
C -4.50447 .65350 .91375
C -4.14008 1.91361 .42908
C -2.88273 .23701 -3.67634
C -4.62365 -.46363 .04840
C -4.37031 -.34863 -1.32313
C -4.29599 .97048 -1.84106
C -3.50198 1.26247 -3.02273
C -3.17443 -1.96966 2.95734
C -4.04968 -1.25037 2.14737
C -4.25168 -1.65187 .78989
C -3.49123 -2.67535 .19924
C -3.66691 -1.44061 -2.00083
C -3.04548 -1.13404 -3.21799
C -1.03062 .71570 4.30854
C -2.25050 .12644 3.84583
C -2.30033 -1.27627 3.83859
C -2.56314 3.77853 .57391
C -3.22006 2.72860 1.22624
C -2.62932 2.19189 2.43882
C -1.36801 2.69908 2.87761
C -.61936 1.95892 3.85498
C -4.05107 .18133 2.20556
C -3.09102 .88794 2.94431
