98 

C 4.77257 .74505 1.22407
C 4.71972 1.46399 -.00662
C 4.77077 .73461 -1.23084
C 4.02630 2.68938 -.01155
C 3.30019 3.12517 1.14452
C 3.19901 2.33217 2.29144
C 4.06248 1.19273 2.35392
C 3.29845 3.11478 -1.17041
C 3.19558 2.31219 -2.31042
C 4.05895 1.17232 -2.36383
C 3.68493 -.00857 -3.11634
C 2.53168 -.01277 -3.83655
C 2.18047 3.89922 -.72349
C -.14997 4.38046 -.73210
C .96775 3.93969 -1.45264
C .78671 3.06398 -2.60400
C 1.92225 2.28440 -3.04910
C 1.67648 1.16401 -3.86002
C 1.68188 1.19775 3.85384
C 1.92672 2.31102 3.03192
C .79067 3.08690 2.58138
C .96978 3.95280 1.42202
C 2.18160 3.90598 .69203
C -.14917 4.38701 .69884
C -.14565 -4.38135 -.69200
C .97183 -3.94612 -1.41649
C 4.06012 -1.18218 -2.35250
C 1.67777 -1.19088 -3.84943
C 1.92485 -2.30349 -3.02754
C 3.19830 -2.32285 -2.28833
C .79024 -3.08078 -2.57541
C .36254 -.74221 -4.09698
C -.75643 -1.46321 -3.67408
C -.54987 -2.69561 -2.95184
C -2.95004 -2.63023 -2.32199
C -1.69220 -3.27059 -2.25128
C -1.47245 -4.10694 -1.13240
C -3.11813 1.38018 -3.02927
C -2.01090 .70762 -3.59175
C -2.00982 -.73683 -3.58485
C -3.11640 -1.40526 -3.01619
C -1.47642 4.10088 -1.17024
C -1.69580 3.25405 -2.28141
C -.55309 2.67384 -2.97677
C -.75827 1.43467 -3.68745
C .36182 .71121 -4.10326
C -2.95313 2.61152 -2.34608
C 3.30193 -3.11603 -1.14145
C 2.18459 -3.89809 -.68789
C -.14491 -4.37503 .73897
C .97335 -3.93343 1.45809
C 2.18526 -3.89186 .72761
C .79306 -3.05794 2.60984
C 1.92849 -2.27717 3.05322
C 1.68285 -1.15715 3.86472
C -1.47127 -4.09663 1.17882
C -2.94744 -2.60938 2.35765
C -1.69001 -3.25035 2.29081
C -.54667 -2.66922 2.98459
C -.75197 -1.43040 3.69568
C .36807 -.70591 4.10987
C -3.87581 -2.64140 -1.19530
C -3.49999 -3.25894 .02122
C -2.31015 -4.03424 .02368
C -3.87461 -2.63046 1.23267
C 4.02901 -2.67907 .01325
C 4.72087 -1.45257 .00690
C 4.77170 -.73355 -1.22360
C 4.77330 -.72306 1.23077
C 3.30323 -3.10623 1.17275
C 3.20113 -2.30322 2.31235
C 4.06347 -1.16210 2.36431
C 2.53718 .02068 3.83929
C 3.68991 .01836 3.11736
C -4.19369 -.67262 2.41330
C -3.11287 -1.37776 3.04136
C -2.00548 -.70443 3.60175
C -4.19415 .69625 2.40680
C -3.11372 1.40771 3.02816
C -2.00592 .74020 3.59479
C -4.59933 -1.42334 -1.19588
C -4.89751 -.73818 .01104
C -4.59822 -1.41219 1.22357
C -4.60084 1.41327 -1.20904
C -4.19771 .67399 -2.39932
C -4.19692 -.69463 -2.39290
C -4.59893 1.42452 1.21026
C -4.89839 .73899 .00413
C -2.31383 4.03779 -.01345
C -3.87664 2.64331 1.20813
C -3.50326 3.26113 -.00890
C -3.87897 2.63193 -1.21963
C .36757 .74768 4.10291
C -.75275 1.46764 3.68167
C -.54857 2.70029 2.95933
C -2.94945 2.63295 2.33299
C -1.69256 3.27430 2.26035
C -1.47521 4.11110 1.14104
