98 

C 4.51827 .46240 1.78910
C 3.95675 1.74649 1.65765
C 1.94481 3.20699 2.18723
C 2.22917 3.94455 1.03713
C 1.19196 4.59846 .29607
C -.08010 4.69753 .83940
C 3.98102 -.49560 2.70171
C 2.94196 -.13805 3.53155
C 2.41644 1.18865 3.48173
C 2.86757 2.12534 2.54958
C .56520 3.19524 2.68627
C -.37289 4.00745 2.06259
C 2.64045 -3.62491 1.23905
C 2.87724 -2.68692 2.26138
C 3.95386 -1.79746 2.05932
C -2.19520 3.52860 -1.93673
C -1.06914 4.18705 -1.34288
C -1.21538 4.61306 -.00476
C -2.31619 4.09241 .81243
C -4.10136 2.46031 1.02103
C -3.42995 3.41731 .22137
C -3.40915 3.22038 -1.17884
C 1.01069 1.10603 3.85243
C .06728 2.02673 3.43249
C -1.32189 1.60321 3.35434
C -2.28073 2.50182 2.69351
C -1.78501 3.66830 2.03708
C -3.50630 2.01401 2.25545
C .24595 3.90784 -1.87099
C 1.35109 4.27731 -1.08326
C -2.01077 2.53942 -2.88702
C -.71274 2.11517 -3.30844
C .42613 2.84914 -2.87548
C 1.75723 2.28803 -3.09440
C 1.85500 1.06095 -3.75011
C -3.11938 1.60904 -2.80026
C -3.86290 -.64530 -2.45852
C -2.95516 .25921 -3.08644
C -1.64486 -.23165 -3.53219
C -.59060 .74108 -3.76293
C .69089 .26875 -4.01155
C -4.77831 1.35383 .44464
C -4.69176 1.11366 -.94768
C -3.98955 2.05627 -1.74393
C -4.68367 -.24836 -1.39516
C 2.88054 2.68885 -2.24302
C 2.63907 3.62632 -1.22158
C 2.95334 .14031 -3.51316
C 3.98911 .49911 -2.67958
C 3.95775 1.80084 -2.03721
C 2.42939 -1.18699 -3.46454
C 4.52490 -.45826 -1.76512
C 3.96487 -1.74311 -1.63559
C 2.87895 -2.12314 -2.53102
C -.35965 -4.01093 -2.05609
C .57872 -3.19631 -2.67564
C 1.95650 -3.20599 -2.17136
C 2.23870 -3.94380 -1.02095
C -3.49499 -2.02340 -2.26057
C -2.26752 -2.50882 -2.69388
C -1.30828 -1.60770 -3.35072
C .08155 -2.02833 -3.42340
C 1.02480 -1.10611 -3.83973
C -1.77237 -3.67462 -2.03563
C 4.98512 .29011 -.60787
C 4.56125 1.66743 -.75247
C 4.06560 2.39403 .35336
C 3.19739 3.46174 .06490
C 4.98364 -.28530 .63341
C 4.56144 -1.66325 .77655
C 3.20286 -3.45963 -.04546
C 4.07058 -2.39056 -.33093
C -1.20802 -4.61814 .00865
C -.06992 -4.70069 -.83139
C 1.20026 -4.59959 -.28338
C -2.19565 -3.53551 1.93690
C -1.06653 -4.19207 1.34748
C -4.09420 -2.47061 -1.02798
C -3.40740 -3.22906 1.17437
C -3.42389 -3.42643 -.22571
C -2.30716 -4.09956 -.81236
C -4.68860 .23708 1.38583
C -3.99155 -2.06577 1.73717
C -4.69313 -1.12511 .93833
C -4.77502 -1.36527 -.45420
C .67792 -.26952 4.02213
C -.60186 -.74430 3.76892
C -1.65688 .22607 3.53422
C -3.12619 -1.61749 2.79686
C -2.96502 -.26755 3.08341
C -3.87239 .63476 2.45180
C 1.35433 -4.27800 1.09638
C .24618 -3.91036 1.88027
C .42115 -2.85095 2.88508
C 1.75067 -2.28751 3.10859
C 1.84425 -1.06013 3.76435
C -2.01610 -2.54617 2.88790
C -.72016 -2.11930 3.31400
