98 

C 4.67346 -.96971 .28183
C 4.23268 -1.79492 1.37487
C 4.45731 .72044 -1.97949
C 4.32333 -.64155 -2.12507
C 4.55228 -1.50332 -1.01787
C 3.54372 1.59608 -2.67382
C 3.77539 -2.71387 -1.26420
C 3.29385 -3.51107 -.19508
C 3.56828 -3.08455 1.13805
C 2.11353 -4.24637 -.41665
C 2.97199 -2.49334 -2.40714
C .63129 -2.30507 -3.18820
C 1.69577 -3.07924 -2.54564
C 1.36905 -4.09153 -1.62835
C -1.76846 -1.95675 -3.48109
C -.72805 -2.79194 -3.06787
C 1.29285 3.23792 -2.71433
C 1.18807 1.95460 -3.27889
C 2.36521 1.09483 -3.26056
C 2.20285 -.35244 -3.36832
C 3.23269 -1.16872 -2.90229
C -.12553 1.39566 -3.45784
C -.24578 -.04056 -3.73608
C .87276 -.93617 -3.54586
C -1.52207 -.59148 -3.78642
C 1.17401 -4.46729 .64635
C 1.34475 -3.88280 1.89841
C 2.63018 -3.29756 2.16062
C 2.76782 -2.19687 3.08935
C 1.68431 -1.76529 3.78586
C -.13773 -4.58498 .05840
C -2.42405 -3.92993 -.06162
C -1.29733 -4.15071 .73867
C -1.15595 -3.43986 2.01331
C .15802 -3.36244 2.60398
C .38067 -2.38439 3.58755
C -1.05377 -3.83060 -2.09346
C -.01005 -4.39037 -1.33424
C -2.32368 -3.82364 -1.48008
C 3.48768 .18551 2.64539
C 2.33353 .63674 3.39134
C 3.70819 -1.23616 2.53244
C 1.48142 -.34330 3.99529
C .11230 -.13104 4.11798
C -.49050 1.10378 3.76231
C .34076 2.15450 3.28229
C 1.76792 1.91979 3.12849
C 2.51815 2.81033 2.32858
C -1.65671 3.29168 2.45355
C -.27608 3.24507 2.54095
C -3.82947 -.14531 2.61702
C -2.61498 -.17043 3.29359
C -1.91731 1.09517 3.51385
C -2.49010 2.26649 3.01238
C -3.50166 -3.07998 .38189
C -3.39426 -2.37604 1.59254
C -2.18284 -2.50759 2.40566
C -1.85650 -1.42841 3.30047
C -.58319 -1.39858 3.86515
C -4.19786 -1.22533 1.71935
C 3.67321 2.38962 1.63925
C 4.09086 1.03397 1.67188
C 4.69012 .46351 .46357
C 3.80776 3.21106 .45066
C 4.28539 2.64201 -.70771
C 4.76137 1.27468 -.69364
C 2.67493 4.11814 .40627
C 3.56804 2.84938 -1.96112
C 2.46959 3.67143 -2.00190
C 2.04210 4.38675 -.80998
C .48585 3.98833 1.54065
C 1.87692 3.86391 1.55557
C .62495 4.48684 -.85061
C -.15856 4.36710 .30633
C -3.61596 3.20662 1.19332
C -2.33110 3.82279 1.27482
C -1.57910 4.11026 .13024
C -4.13637 2.86928 -.05448
C -3.32941 3.06565 -1.21461
C -2.06806 3.65336 -1.15343
C -5.01974 .76053 .82582
C -4.39947 1.06736 2.10219
C -3.73098 2.26287 2.28965
C -4.87300 1.63161 -.23451
C -4.11641 -2.49658 -.75929
C -4.70032 -1.21351 -.69191
C -4.88415 -.67210 .60562
C -3.66739 -.71204 -2.88000
C -3.11249 -2.05102 -2.94010
C -3.37414 -2.94064 -1.92631
C -4.53640 1.10250 -1.55202
C -4.49136 -.29225 -1.81052
C .17213 3.83991 -2.08022
C -1.09775 3.30754 -2.19671
C -1.27519 2.12829 -3.01414
C -3.59875 1.98060 -2.14616
C -2.58393 1.49292 -3.00221
C -2.70136 .16917 -3.43762
