98 

C 4.17430 2.46987 -.73965
C 4.73025 1.16921 -.65998
C 4.92275 .64433 .63757
C 3.59356 3.08281 .39566
C 3.55393 2.43772 1.64653
C 4.35333 1.27783 1.77738
C 4.49430 .24194 -1.77006
C 4.51020 -1.15107 -1.50345
C 3.41384 2.90070 -1.89992
C 3.14107 2.00941 -2.90681
C 3.68461 .66659 -2.84624
C 2.36751 3.78492 -1.44407
C 1.08579 3.79972 -2.06404
C .05369 4.35686 -1.31359
C 2.13477 1.63519 3.46861
C 2.36072 2.60052 2.49278
C 1.21787 3.39856 2.03073
C 1.34423 4.10498 .77380
C 2.48683 3.90826 -.04196
C .18267 4.53008 .09965
C 2.71823 -.20961 -3.41879
C 2.59629 -1.54041 -3.00827
C 3.60000 -2.02827 -2.13457
C 1.28392 -2.18047 -3.05007
C 1.10372 -3.40484 -2.29257
C -.18552 -3.91264 -2.15935
C 1.54611 .55806 -3.77218
C -.84733 .91708 -3.55736
C .26999 .01252 -3.73777
C .13786 -1.42512 -3.47132
C -3.20881 1.18486 -2.94153
C -2.17632 .35025 -3.39221
C -2.35049 -1.08290 -3.26327
C -1.18403 -1.96168 -3.28099
C -1.30861 -3.23800 -2.70836
C .76004 2.76247 -3.05086
C 1.79540 1.92478 -3.45493
C -1.32884 4.07141 -1.60803
C -1.66858 3.05745 -2.56507
C -.60356 2.28300 -3.19110
C -2.93735 2.50434 -2.45754
C 2.09163 -3.80197 -1.28058
C 3.30725 -3.11384 -1.21652
C -.62523 -4.59754 -.94332
C .24476 -4.71900 .11039
C 1.64092 -4.39740 -.07324
C -1.99042 -4.24132 -.69472
C -.15906 -4.26057 1.41162
C -1.42614 -3.71764 1.64217
C -2.41585 -3.78568 .56513
C -3.53355 -2.75862 -1.86320
C -2.45677 -3.59050 -1.90198
C -4.19289 -2.48989 -.59743
C -3.59745 -2.92299 .61037
C -3.80413 -2.11523 1.74708
C -3.53363 -1.55621 -2.65529
C 2.13640 -3.92569 1.16744
C 3.26004 -3.08662 1.23547
C 3.95118 -2.84974 .02009
C 4.75176 -1.66282 -.16179
C 4.91883 -.79373 .88307
C 2.16491 -1.89532 3.15668
C 3.32777 -2.09700 2.30087
C 4.24563 -1.03965 2.14590
C 2.03580 -.66872 3.80785
C 2.92480 .42152 3.55611
C 4.01095 .24105 2.73494
C 1.00608 -3.75662 2.06953
C -2.76643 -1.99906 2.77654
C -1.53513 -2.71088 2.67858
C -.36906 -2.14844 3.28542
C .94410 -2.68797 2.95653
C -.45435 -.80915 3.84579
C .73578 -.10338 4.08345
C -3.95472 -.03264 2.71420
C -2.83890 -.72615 3.33297
C -1.65298 -.03953 3.74006
C -3.89787 1.31669 2.54065
C -2.72403 2.05272 2.98406
C -1.58436 1.38664 3.55516
C -4.79536 -1.20448 -.69898
C -4.90558 -.35071 .41896
C -4.49691 -.88909 1.67001
C -4.58378 1.59195 -1.08380
C -4.31821 .68143 -2.18497
C -4.45816 -.66923 -2.01556
C -4.37117 1.91860 1.30448
C -4.82196 1.10450 .21638
C -2.05836 4.20632 -.42220
C -3.59340 3.06778 1.09066
C -3.28499 3.50262 -.22595
C -3.78322 2.75292 -1.30538
C .80543 1.29654 3.88068
C -.31342 2.03112 3.45731
C -.09955 3.15459 2.55778
C -2.56336 3.14100 2.14385
C -1.26124 3.70212 1.88470
C -1.10224 4.38057 .67276
