98 

C -4.77975 1.18813 -.62642
C -4.59343 .21064 -1.64167
C -4.65826 -1.16358 -1.26748
C -3.77964 .55109 -2.74103
C -3.12101 1.81798 -2.79575
C -3.28790 2.77714 -1.79155
C -4.21136 2.46644 -.74003
C -2.89542 -.43088 -3.30921
C -2.88162 -1.74905 -2.87280
C -3.91142 -2.13689 -1.94562
C -3.71144 -3.24773 -1.03270
C -2.57426 -4.00349 -1.12695
C -1.67682 .23262 -3.69771
C -.42975 -.39506 -3.64243
C -.38150 -1.80249 -3.23420
C -1.60737 -2.46837 -2.87323
C -1.53285 -3.63953 -2.08417
C 2.10311 -1.58862 -3.01391
C .87731 -2.35704 -2.82856
C .90206 -3.46812 -1.92633
C -.30533 -4.06938 -1.55709
C 3.28369 -2.06368 -2.42116
C 2.03410 -.19376 -3.39385
C .73472 .44302 -3.57254
C 3.15299 .61371 -3.15399
C -.72877 2.41953 -3.14056
C -1.82652 1.61529 -3.42097
C 1.52561 3.73215 -2.04052
C 1.73066 2.61475 -2.87199
C .58551 1.85412 -3.33822
C 2.98381 1.99475 -2.78509
C -.93886 3.57254 -2.25550
C -2.15479 4.33153 -.25823
C -2.18666 3.70105 -1.52019
C .19706 4.20582 -1.74248
C -3.51201 -3.20570 1.42871
C -2.35644 -4.08876 1.32505
C -4.22587 -2.85547 .27304
C -1.91833 -4.50767 .07278
C -.51809 -4.56604 -.19620
C -1.38525 -3.65158 2.27906
C -.01257 -3.76092 2.05459
C .43757 -4.28947 .78458
C 3.24356 -3.08077 -1.38916
C 2.04044 -3.68453 -1.04538
C 1.80140 -4.02353 .34155
C 2.72501 -3.59408 1.29772
C -.80513 .86362 3.91709
C -1.67600 -.15891 3.58284
C -3.23007 -2.21263 2.40081
C -3.69411 -.88326 2.27258
C -1.92127 -2.50044 2.96166
C 2.23781 -2.92171 2.49876
C .86300 -2.87287 2.79667
C .34167 -1.71539 3.45082
C -1.10893 -1.50569 3.46683
C 1.21725 -.59902 3.67409
C .62984 .67116 3.93318
C -2.93750 .18068 2.92203
C -4.55442 -.58308 1.16363
C -4.75627 -1.55601 .14998
C -3.19669 1.53707 2.57134
C -4.14786 1.80910 1.52363
C -4.72949 .78575 .79126
C -1.05281 2.22221 3.55364
C -2.21852 2.57554 2.85981
C -2.12848 3.72310 2.02368
C -2.97088 3.84026 .83782
C -3.94996 2.92627 .60892
C 3.09988 -1.84755 2.78550
C 2.57495 -.61428 3.23774
C 1.23662 1.85238 3.50907
C .20145 2.83194 3.27164
C 4.22502 -1.91643 1.87267
C 4.83458 -.75641 1.45588
C 4.31402 .52469 1.90656
C 3.20296 .62090 2.77109
C 2.45329 1.83974 2.76067
C 2.63872 2.82089 1.72425
C .33501 3.78859 2.26033
C -.87601 4.30152 1.71445
C 4.96100 -1.59425 -.84700
C 4.25839 -2.78885 -.41834
C 3.96364 -2.98359 .92816
C 5.27800 -.60860 .08373
C 4.74823 1.15232 -1.53991
C 4.31874 .13067 -2.47503
C 4.39409 -1.20363 -2.12597
C 5.12255 .79100 -.25988
C 2.33225 3.90039 -.88053
C 3.43701 3.07150 -.63518
C 3.89277 2.29968 -1.73107
C -.92646 4.75201 .32917
C 1.56501 3.79593 1.45663
C 1.49514 4.37122 .18786
C .22591 4.73634 -.41606
C 4.51007 1.47321 .87776
C 3.63553 2.57353 .71709
