98 

C 2.72881 1.80087 2.73013
C 3.95995 1.64402 2.09564
C 4.66897 .40076 2.10538
C 2.13925 .65329 3.39706
C 2.82003 -.56232 3.36143
C 4.09292 -.70240 2.72610
C -1.36568 1.88767 3.37247
C .02214 1.83536 3.54771
C .70549 .61408 3.63059
C -2.13365 .71867 3.24331
C -1.46514 -.55133 3.33146
C -.04203 -.60278 3.51248
C .68447 -1.82594 3.17301
C 2.07910 -1.79070 3.17248
C -3.50802 -1.62604 2.49772
C -2.16602 -1.74911 2.88176
C -4.65036 1.91196 .74314
C -3.75779 2.03962 1.82442
C -3.43400 .84428 2.59113
C -4.13121 -.33130 2.32208
C 5.34114 -.98443 .19981
C 4.72648 -2.12952 .84350
C 5.33614 .25437 .82763
C 4.12713 -1.99733 2.08196
C 2.08199 -4.00204 -.98983
C 4.05218 -2.91398 -.17512
C 2.87823 -3.65802 .11312
C 2.85560 -2.65237 2.34554
C .80042 -3.68714 1.54318
C 2.22444 -3.48223 1.41288
C -1.29147 -4.39342 .46596
C .10306 -4.35219 .45478
C .71791 -4.41611 -.82075
C -2.04708 -3.79459 1.53767
C .03768 -2.89070 2.46111
C -1.41591 -2.89725 2.40953
C 4.85452 1.36500 -1.33022
C 4.75912 .05612 -1.95004
C 5.06711 1.46035 .05596
C 5.02058 -1.07461 -1.21689
C 4.19949 -2.25169 -1.42345
C 3.12449 -2.24579 -2.35623
C 2.15858 -3.24172 -2.19369
C 2.01351 3.69509 -1.80465
C 3.18572 3.16897 -1.19535
C 3.88849 2.19330 -1.93765
C 2.72708 -1.01568 -3.00728
C 3.62626 .08369 -2.87044
C 3.15553 1.38724 -2.92553
C 1.34006 -.76494 -3.30922
C 1.79612 1.66625 -3.23800
C 1.34347 2.94955 -2.88309
C 3.26420 3.15887 .23615
C 4.22620 2.31028 .82897
C 1.04761 4.35812 -1.06290
C 1.02101 4.23774 .37517
C 2.10388 3.56702 1.01847
C 1.87011 2.90176 2.29680
C .61091 2.97733 2.86689
C -.18687 4.25681 -1.82417
C -1.38994 4.40126 -1.21735
C -1.45796 4.51177 .23728
C -.28064 4.33880 1.02177
C -.45404 3.72374 2.27462
C .83838 -3.07799 -2.70683
C .37728 -1.83620 -3.15729
C .85327 .59810 -3.41118
C -.56316 .88377 -3.31210
C -.99525 2.22398 -3.03314
C -.01822 3.23538 -2.83650
C -1.68240 3.09582 2.62795
C -2.70025 3.96777 .63445
C -2.80563 3.15497 1.79888
C -3.41278 3.56785 -.57478
C -4.40019 1.59727 -1.57030
C -4.34686 2.57345 -.52052
C -1.94035 -2.59873 -2.57114
C -1.05817 -1.55890 -3.08096
C -1.52656 -.21576 -3.17354
C -3.27218 -2.28716 -2.29922
C -3.75829 -.96496 -2.45951
C -2.90187 .08748 -2.82606
C -3.29215 1.43270 -2.43220
C -2.32679 2.49439 -2.50608
C -2.51295 3.62688 -1.68145
C -3.36568 -3.81174 -.38383
C -2.04746 -4.26929 -.73971
C -1.39061 -3.75575 -1.88302
C -.00989 -3.95833 -1.94325
C -4.02159 -2.93012 -1.22240
C -5.01480 -1.77487 .70710
C -4.12052 -2.52834 1.56275
C -3.37176 -3.56915 1.04654
C -4.93694 -1.95251 -.67584
C -5.11108 .46808 -1.03152
C -5.24906 .65841 .40712
C -5.07934 -.43097 1.24907
C -4.86032 -.78594 -1.53347
