60 

C    -1.5030359    4.8965376    0.3885309 
C    -0.0921920    5.2345454    0.3956823 
C     0.4679263    4.9980666   -0.8763406 
C    -1.7139053    4.2187094   -0.8936934 
C    -0.5522240    4.3110127   -1.7101944 
C    -2.2792327    2.8964881   -0.6743816 
C    -1.6304068    3.8361619    1.3239534 
C    -2.3026489    2.6863974    0.7513537 
C     0.6214848    4.3786570    1.3426263 
C    -0.3471795    3.5255443    1.9567836 
C     1.5966590    4.1218456   -0.7554984 
C     1.7420422    3.7464221    0.6607330 
C     0.0296500    3.0991145   -2.1869679 
C     1.3896133    3.0318132   -1.6335644 
C    -1.9153649    1.7846645   -1.4704152 
C    -0.6936634    1.8574469   -2.2513007 
C    -2.2879357    0.4952658   -0.9718297 
C    -2.1297165    1.3974885    1.2878057 
C    -2.4873961    0.3028433    0.4314543 
C    -0.0354585    2.1770455    2.2959613 
C    -1.0627453    1.1420994    2.2391078 
C     2.0673609    2.4260256    0.9751576 
C     1.3191584    1.7306127    2.0341771 
C     1.9726729    1.7650670   -1.3792556 
C     2.5373016    1.5106858   -0.0881136 
C     0.0411827    0.6305791   -2.4559594 
C     1.4674102    0.6424281   -2.1377986 
C    -1.9258456   -0.6671732   -1.7435297 
C    -0.6462670   -0.6401404   -2.4440754 
C    -2.4802440   -1.8857364   -1.3244295 
C    -2.4954733   -1.0381658    0.9739128 
C    -2.8692666   -2.0710095    0.0796786 
C    -0.7286401   -0.2263747    2.5111968 
C    -1.6047259   -1.3156095    2.0827845 
C     1.6296591    0.3940350    2.2858871 
C     0.6458916   -0.5401513    2.7408820 
C     2.9409010    0.1758317    0.2298678 
C     2.6259779   -0.3498543    1.5274723 
C     2.1238489   -0.5722964   -1.9697878 
C     3.0112921   -0.7774822   -0.8356670 
C     0.0938230   -1.8999149   -2.5500138 
C     1.5140931   -1.8396433   -2.3343697 
C    -1.9253451   -3.1281704   -1.7693289 
C    -0.5434510   -3.1346579   -2.2184195 
C    -2.6289244   -3.4478387    0.3978200 
C    -2.1437819   -4.1296959   -0.7936928 
C    -1.1466443   -2.6732736    2.2159314 
C    -1.7147051   -3.7164973    1.4393715 
C     1.1609239   -1.8635650    2.5090670 
C     2.3864799   -1.7417975    1.7267815 
C     0.2929423   -2.9192079    2.2967173 
C     2.9938796   -2.1672778   -0.5774649 
C     2.1534805   -2.8407146   -1.5728664 
C     2.6181454   -2.6865678    0.6854260 
C     0.1314550   -4.1648951   -1.4290349 
C    -0.8527616   -4.7067612   -0.4987267 
C    -0.6084289   -4.5397975    0.8794693 
C     0.6264933   -4.0038104    1.3609933 
C     1.4347925   -3.9047716   -0.9620673 
C     1.7110684   -3.8205826    0.4822014 
