60 

C     0.0958147    4.3628460    0.5668881 
C    -1.2357413    4.1257307    0.3471230 
C    -1.4278852    3.8748307   -1.1093164 
C     0.7974853    4.2212909   -0.7388595 
C    -0.1341439    3.6729602   -1.6966082 
C     2.0060926    3.6119001   -0.4686990 
C     0.8218282    3.5906874    1.5474480 
C     2.1038836    3.3346116    0.9883643 
C     0.1291525    2.5121608    2.2717273 
C    -1.9822781    3.1156180    1.0786739 
C    -1.3087498    2.2407579    2.0137357 
C    -2.4147746    2.9267952   -1.2289319 
C    -2.8786928    2.5550902    0.1228187 
C    -2.2057580    1.7110320   -1.9468847 
C     0.1636887    2.4075699   -2.3344204 
C    -0.9220422    1.4189825   -2.5138095 
C     2.4076057    2.4452093   -1.1600082 
C     1.5186403    1.8730327   -2.1410831 
C     2.7546867    2.1022766    1.1334068 
C     3.0458312    1.5599255   -0.1883942 
C     0.9381835    1.4228454    2.6544613 
C     2.2732746    1.2066993    2.1071561 
C     0.3894521    0.1165187    2.9466055 
C    -1.8242243    0.8855105    2.1763196 
C    -0.9916401   -0.1606660    2.7877228 
C    -3.1704667    1.2002362    0.1161208 
C    -2.9060358    0.6684772   -1.2275965 
C    -2.8459737    0.4044756    1.2512978 
C    -2.6574270   -0.6885510   -1.4136551 
C    -0.6312902   -0.0006520   -2.7404362 
C    -1.5697794   -1.0665590   -2.3133951 
C     1.7551025    0.5144507   -2.4193056 
C     0.7240154   -0.3736942   -2.8887337 
C     3.1480389    0.1733683   -0.3907003 
C     2.6979377   -0.2946188   -1.6682782 
C     2.4683457   -0.1859943    1.9606460 
C     1.3757250   -0.8791262    2.6431569 
C     3.0074354   -0.7382366    0.7547905 
C     1.0351925   -2.2164577    2.3456731 
C    -1.3316660   -1.5477737    2.6602927 
C    -0.3391709   -2.5788208    2.4646072 
C    -3.0358042   -0.9784291    1.0364673 
C    -3.0098381   -1.5472697   -0.3222688 
C    -2.5000837   -1.9451520    1.9104863 
C    -0.9182869   -3.5814415    1.5539675 
C    -2.5060526   -2.8681078   -0.2117754 
C    -2.2251803   -3.1433242    1.1932164 
C    -1.1258231   -2.4064689   -2.2405496 
C    -1.6102404   -3.3380279   -1.1990844 
C     1.1777516   -1.7296048   -2.6913399 
C     2.4017784   -1.6679514   -1.8831384 
C     0.2606113   -2.7470471   -2.4863497 
C     2.7421818   -2.1074631    0.5081834 
C     1.8555121   -2.8957825    1.3636773 
C     2.5926639   -2.6099303   -0.8511830 
C    -0.1083388   -4.2151814    0.5860581 
C    -0.5413205   -4.1940486   -0.8038040 
C     0.6147421   -3.8462290   -1.6020781 
C     1.3003600   -3.9382783    0.5871756 
C     1.7556943   -3.7650025   -0.7975812 
