60 

C    -0.1808871   -4.8067019    0.0000000 
C    -0.8499764   -4.2815033    1.1942433 
C    -2.0408225   -3.7172839    0.7594850 
C    -0.8499764   -4.2815033   -1.1942433 
C    -2.0408225   -3.7172839   -0.7594850 
C     0.0970429   -3.4471807   -1.9060582 
C     1.1438683   -4.3958380    0.0000000 
C     1.3959868   -3.6867623   -1.2581392 
C     0.0970429   -3.4471807    1.9060582 
C     1.3959868   -3.6867623    1.2581392 
C    -0.2453024   -2.1105595    2.3049464 
C    -2.4327419   -2.4342280    1.1782464 
C    -1.5984717   -1.6167422    2.0269770 
C    -2.4327419   -2.4342280   -1.1782464 
C    -2.9877880   -1.7860624    0.0000000 
C    -0.2453024   -2.1105595   -2.3049464 
C    -1.5984717   -1.6167422   -2.0269770 
C     0.8276095   -1.0879363   -2.4011245 
C     2.3511256   -2.6980199   -1.2568003 
C     2.1172260   -1.4313921   -1.9332112 
C     2.3511256   -2.6980199    1.2568003 
C     3.0053239   -2.3803503    0.0000000 
C     0.8276095   -1.0879363    2.4011245 
C     2.1172260   -1.4313921    1.9332112 
C     0.5097420    0.3402590    2.5306968 
C    -1.8774466   -0.1912203    2.0591903 
C    -0.8798648    0.7688125    2.5354263 
C    -3.1845941   -0.4512971    0.0000000 
C    -2.8757269    0.3306468    1.1731304 
C    -1.8774466   -0.1912203   -2.0591903 
C    -2.8757269    0.3306468   -1.1731304 
C     0.5097420    0.3402590   -2.5306968 
C    -0.8798648    0.7688125   -2.5354263 
C     1.5098368    1.3352456   -2.1765766 
C     2.8969850   -0.4209188   -1.2280819 
C     3.3395131   -1.0178123    0.0000000 
C     2.8969850   -0.4209188    1.2280819 
C     2.5520928    0.9157463   -1.2467519 
C     1.5098368    1.3352456    2.1765766 
C     2.5520928    0.9157463    1.2467519 
C     2.6997398    1.6803470    0.0000000 
C     1.2031377    2.7200592    2.1758581 
C    -1.1612452    2.1626325    2.3986364 
C    -0.1280767    3.1343673    2.4044069 
C    -2.8666528    1.6921129    0.7379113 
C    -2.8666528    1.6921129   -0.7379113 
C    -2.1428166    2.6429463    1.4215641 
C    -1.1612452    2.1626325   -2.3986364 
C    -2.1428166    2.6429463   -1.4215641 
C     1.2031377    2.7200592   -2.1758581 
C    -0.1280767    3.1343673   -2.4044069 
C     2.3745530    3.0411055    0.0000000 
C     1.7943039    3.6234613    1.1865736 
C     1.7943039    3.6234613   -1.1865736 
C    -0.4304119    4.2002829    1.4281070 
C    -1.5991586    3.8075340    0.7291769 
C    -1.5991586    3.8075340   -0.7291769 
C    -0.4304119    4.2002829   -1.4281070 
C     0.7687614    4.5079454    0.7297471 
C     0.7687614    4.5079454   -0.7297471 
