60 

C     1.9597484   -4.1671296   -0.6262382 
C     1.4980569   -4.2803644    0.7715638 
C     0.1526312   -4.6638669    0.7294755 
C     0.7731490   -4.1556227   -1.4777943 
C    -0.3159825   -4.5416902   -0.7041635 
C     0.7292302   -2.8771286   -2.1943491 
C     2.5822071   -2.9389548   -0.7726480 
C     1.9433232   -2.1751200   -1.8492546 
C     1.8401422   -3.0522654    1.4538396 
C     2.6577506   -2.2799053    0.5271020 
C     0.8653399   -2.3045426    2.2120474 
C    -0.7945958   -3.9961046    1.5171906 
C    -0.4717618   -2.8334188    2.2837289 
C    -1.5202408   -3.7749300   -0.7138208 
C    -1.9256539   -3.6308703    0.6569931 
C    -0.4624923   -2.1161810   -2.3138329 
C    -1.6549140   -2.6195489   -1.5938438 
C    -0.3315608   -0.6764195   -2.5812714 
C     2.0085371   -0.7930121   -1.8268494 
C     0.9468892   -0.0179179   -2.4347357 
C     2.7216752   -0.9027260    0.5745666 
C     2.7383434   -0.1771031   -0.7041686 
C     1.0303805   -0.8602359    2.3417204 
C     2.1190011   -0.1875057    1.6895557 
C    -0.1258421   -0.0122811    2.6539784 
C    -1.5974264   -1.8947370    2.1569615 
C    -2.4798331   -2.4345846    1.1312288 
C    -1.4580223   -0.5143206    2.3085756 
C    -2.5938361   -1.6481630   -1.1935526 
C    -3.0033906   -1.5448437    0.1975874 
C    -1.5120411    0.1795404   -2.5095393 
C    -2.5985072   -0.3096355   -1.7277233 
C    -1.3706259    1.6011749   -2.5899538 
C     1.0748372    1.4395241   -2.4030545 
C    -0.0587587    2.2527223   -2.5905240 
C     2.8369404    1.1822255   -0.6600136 
C     2.1779766    2.0230005   -1.6481723 
C     2.2731093    1.2493982    1.7469831 
C     2.8813131    1.9108765    0.6149901 
C     0.0483953    1.3657463    2.7524458 
C     1.3283329    2.0055881    2.5064795 
C    -0.9941752    2.3160330    2.3506850 
C    -2.3793267    0.3985195    1.5963908 
C    -3.1132828   -0.1624235    0.5195297 
C    -3.1827904    0.5665654   -0.7333800 
C    -2.1103968    1.8344621    1.5715966 
C    -2.2368688    2.4561224   -1.8667447 
C    -2.9520780    1.9198505   -0.7626932 
C    -2.5033057    2.6195313    0.4445967 
C    -0.1761702    3.5565508   -1.9307216 
C    -1.4908066    3.6091792   -1.4014675 
C    -1.7038803    3.7565254    0.0122356 
C     2.1002328    3.3085365   -1.0961361 
C     2.5832579    3.2510301    0.3130931 
C     0.8882556    4.0650473   -1.1294186 
C     1.0733796    3.3799189    2.2065259 
C    -0.3758056    3.5453734    2.0646438 
C    -0.6391801    4.2342908    0.8223069 
C     1.6820162    3.9958917    1.0995547 
C     0.6191004    4.5203279    0.2078930 
