60 

C    -1.3618828   -4.2324819    0.5566428 
C     0.0079234   -4.2710710    0.1507126 
C     0.8460349   -3.6367366    1.1365829 
C    -1.4231357   -3.4099906    1.7098642 
C    -0.0765445   -3.0358748    2.0905342 
C    -2.3013682   -2.3051245    1.4625723 
C    -2.0543825   -3.5143202   -0.4926567 
C    -2.7288210   -2.4004849    0.0643854 
C     0.1269311   -3.8748194   -1.2256563 
C    -1.1768674   -3.2654035   -1.5986794 
C     1.3017492   -3.2621827   -1.6556127 
C     1.9983484   -2.9013324    0.7050903 
C     2.2782611   -2.7671213   -0.6903364 
C     2.4100382   -1.8272822    1.5300742 
C     0.2021680   -1.7666658    2.6830663 
C     1.5743309   -1.3737293    2.6193120 
C    -2.0869856   -1.0268236    2.0698717 
C    -0.8244933   -0.7136239    2.7497018 
C    -2.8269497    0.0163076    1.4976591 
C    -2.9320725   -1.2127087   -0.6827986 
C    -3.3349743   -0.1157283    0.1221925 
C    -1.2288706   -2.0139417   -2.3063424 
C    -2.1755346   -0.9619644   -1.8974238 
C     1.2086181   -2.3004785   -2.7093783 
C    -0.0064950   -1.6138103   -2.9470707 
C     2.8120973   -1.5014327   -1.2047874 
C     2.1873778   -1.2801817   -2.4508946 
C     3.1370286   -0.6536661    1.0271799 
C     3.1412534   -0.3743561   -0.3773206 
C     1.9289726   -0.0406801    2.8965846 
C     2.9518440    0.3880942    1.9506587 
C    -0.4384408    0.6799306    2.8860233 
C     0.9732641    0.9798785    3.0062983 
C    -2.5282078    1.4086141    1.7454185 
C    -1.2931770    1.7694567    2.3818116 
C    -3.3424249    1.1615219   -0.4139646 
C    -2.9901131    2.1415324    0.6235918 
C    -1.9446065    0.4325735   -2.2894990 
C    -2.6329304    1.4776862   -1.5942898 
C     0.3012090   -0.1892574   -3.1257562 
C     1.6852511    0.0059895   -2.7835783 
C    -0.6561969    0.8096008   -2.8735757 
C     2.8607635    0.9967939   -0.8295306 
C     2.1222334    1.1509622   -2.0812597 
C     2.6721640    1.7058585    1.5542278 
C     1.5517511    2.1617671    2.3805384 
C     2.7237354    2.0794453    0.1617823 
C    -0.7140914    3.0137459    1.9555247 
C     0.7523789    3.1927344    1.9412491 
C    -2.2706820    3.1865253    0.0428074 
C    -2.0618313    2.8224602   -1.3797421 
C    -1.2052815    3.7396118    0.8056238 
C    -0.1140687    2.1145419   -2.6460112 
C     1.2788458    2.2866090   -2.2778733 
C    -0.8628377    3.1739622   -1.9766046 
C     2.0276201    3.2941767   -0.1650251 
C     1.1444412    3.9281808    0.7907405 
C    -0.0733837    4.2823946    0.0982008 
C     1.3814503    3.4228990   -1.4421818 
C     0.0795665    4.0194201   -1.2786737 
