60 

C     0.0931604    4.4250580    0.3724757 
C    -1.2130297    4.2632554   -0.0291693 
C    -1.2112044    3.6591689   -1.4080119 
C     0.9482891    4.1245631   -0.8003097 
C     0.1320824    3.4553866   -1.8044819 
C     2.0870209    3.5169307   -0.3362010 
C     0.6168811    3.6425003    1.4958608 
C     1.9264514    3.2710117    1.1193705 
C    -0.2257392    2.6412667    2.1586392 
C    -2.1207176    3.5399442    0.7623581 
C    -1.6142887    2.6970687    1.8380437 
C    -2.1559133    2.6166259   -1.4214747 
C    -2.7993180    2.6366191   -0.1201620 
C    -1.8433776    1.3470673   -2.0149124 
C     0.5315739    2.1640559   -2.3171439 
C    -0.5058910    1.1521549   -2.5564119 
C     2.6051111    2.3343800   -0.9245274 
C     1.8784313    1.6863480   -1.9810179 
C     2.4637527    2.0121976    1.3889973 
C     3.0682386    1.5035796    0.1621671 
C     0.3619804    1.3219675    2.5429289 
C     1.7732699    1.0785990    2.2452395 
C    -0.4825297    0.1505197    2.7462132 
C    -2.3518173    1.4500105    1.7869781 
C    -3.0688584    1.4179211    0.5376902 
C    -1.8728773    0.2481162    2.3337077 
C    -2.6200482    0.1859396   -1.5583599 
C    -3.2004187    0.2250945   -0.2062865 
C    -2.2969835   -1.0797013   -2.0600489 
C    -0.1080203   -0.2114733   -2.8947505 
C    -1.0737455   -1.2632474   -2.8107588 
C     2.1871689    0.3089234   -2.1649425 
C     1.2598927   -0.5962606   -2.7673636 
C     3.3377146    0.1268967    0.0045654 
C     3.0522716   -0.4426544   -1.2720224 
C     2.2891682   -0.2321073    2.2275714 
C     3.1937409   -0.6844700    1.1681390 
C     0.1002546   -1.2025443    2.8208271 
C     1.4973200   -1.3574622    2.6306285 
C    -0.7020754   -2.3683079    2.4979464 
C    -2.5746691   -0.9144368    1.8775563 
C    -3.2174031   -0.9426199    0.5835854 
C    -2.0454902   -2.2135325    2.1080340 
C    -2.5833603   -2.3296786   -1.3320039 
C    -2.9928293   -2.2604205    0.0092013 
C    -2.3487078   -3.0772983    0.9879049 
C    -0.6552762   -2.6061926   -2.5785195 
C    -1.5619980   -3.2658111   -1.6674536 
C     1.6400808   -1.9415728   -2.3654758 
C     2.7200371   -1.8373878   -1.3985325 
C     0.6849746   -2.9478942   -2.2496791 
C     2.9931296   -2.0750668    1.0117819 
C     2.0186387   -2.5240457    1.9582916 
C     2.7006616   -2.6707706   -0.2665509 
C    -0.1707708   -3.4843255    1.6834219 
C    -1.1713386   -3.8245184    0.6842263 
C    -0.7815975   -3.9485060   -0.6780500 
C     0.6318631   -3.7930783   -1.0455654 
C     1.1779616   -3.4900496    1.3491450 
C     1.5991729   -3.6177360   -0.0633090 
