60 

C     0.6860361    4.4162629    0.4919310 
C    -0.5187117    4.2782201   -0.2118094 
C    -1.5130558    3.6359601    0.6393772 
C     0.5474083    3.6349915    1.7164172 
C    -0.7921105    3.1050784    1.7926531 
C     1.6044869    2.7129376    1.7744385 
C     1.7065430    3.7697777   -0.2903106 
C     2.3949320    2.8553313    0.5364077 
C    -0.2576840    3.6830677   -1.5272297 
C     1.1248780    3.2521908   -1.5232334 
C    -1.2401385    2.8618726   -2.0678790 
C    -2.5305028    2.9065360    0.0222520 
C    -2.5022304    2.7058798   -1.3954955 
C    -2.9864423    1.6757191    0.6454536 
C    -1.0481391    1.7648682    2.2393128 
C    -2.2919874    1.1432542    1.7679992 
C     1.4049219    1.3943500    2.3206875 
C     0.0671934    0.8956213    2.5964462 
C     2.4290669    0.4809116    2.0410672 
C     3.0242173    1.7316056   -0.0197414 
C     3.3578882    0.7198316    0.9391978 
C     1.4974957    1.9589376   -1.9936567 
C     2.6506155    1.3142063   -1.3752815 
C    -0.8723888    1.5578968   -2.6212312 
C     0.4558470    1.0895280   -2.5818143 
C    -2.9487276    1.3619208   -1.6187674 
C    -3.3839794    0.7621267   -0.4039649 
C    -1.9792564    0.6465561   -2.3832619 
C    -3.3478785   -0.6423125   -0.2464707 
C    -2.4884931   -0.2312587    2.0133862 
C    -3.2262265   -1.0850847    1.1093060 
C    -0.1203758   -0.5539909    2.7051286 
C    -1.4540192   -1.0459436    2.6343070 
C     2.2442871   -0.9635085    2.1659419 
C     0.9458441   -1.5084100    2.4052482 
C     3.8042709   -0.5303292    0.5053833 
C     3.1654101   -1.5969530    1.3136756 
C     2.9258001   -0.0305748   -1.7329245 
C     3.6665982   -0.8847044   -0.8402285 
C     0.6370413   -0.3651545   -2.6573598 
C     1.9300762   -0.8604908   -2.3811221 
C    -1.8215952   -0.7531924   -2.2213440 
C    -2.7281132   -1.4595374   -1.2967318 
C    -0.5117877   -1.2851340   -2.5476992 
C    -2.4368044   -2.8203831   -0.9900254 
C    -2.8408078   -2.4225049    1.3896592 
C    -1.7087266   -2.3992957    2.3310512 
C    -2.5593354   -3.3193784    0.3794613 
C     0.6510487   -2.8346186    1.8205056 
C    -0.7075502   -3.2943605    1.8678305 
C    -1.2949452   -3.9956073    0.7357414 
C     2.7405625   -2.6418730    0.4552792 
C     3.0992709   -2.2227589   -0.8833949 
C     2.1118062   -2.2304795   -1.8863804 
C     1.4948246   -3.2995224    0.7029988 
C    -0.2826456   -2.6598152   -2.2148494 
C    -1.2594568   -3.4045543   -1.5213583 
C    -0.5592831   -4.1114339   -0.4284926 
C     1.0223830   -3.0722302   -1.7208497 
C     0.8226449   -3.7900450   -0.4756368 
