60 

C    -2.1128835   -3.6135066    0.4875092 
C    -0.9259733   -3.8954703    1.1050741 
C     0.1040224   -4.2021979    0.0914454 
C    -1.8348689   -3.6676701   -0.9909356 
C    -0.4266178   -3.8209359   -1.1953767 
C    -2.4897362   -2.6000593   -1.5422325 
C    -2.8302848   -2.3887981    0.7848038 
C    -3.2447818   -1.8994674   -0.4847566 
C    -2.3259532   -1.4449875    1.7543077 
C    -0.3564050   -2.9924586    2.0750475 
C    -1.0761272   -1.8028418    2.4463617 
C     1.3109151   -3.6994468    0.5614109 
C     1.0601815   -2.9519891    1.8166459 
C     2.1933907   -3.1361500   -0.3802095 
C     0.2905399   -2.8267738   -1.9876123 
C     1.6521765   -2.6491555   -1.6500032 
C    -1.8310934   -1.5854251   -2.3262165 
C    -0.4283644   -1.6351464   -2.5440721 
C    -3.2607416   -0.5432790   -0.7745718 
C    -2.4618256   -0.3308539   -1.9785279 
C    -2.6455511   -0.0242648    1.5637172 
C    -3.1892317    0.3982685    0.2854106 
C    -1.9278155    1.0105444    2.3268826 
C    -0.2682730   -0.7354215    2.9254552 
C    -0.7199536    0.6250582    2.9478858 
C     1.8275552   -1.7855833    2.1128394 
C     1.1522482   -0.7246835    2.7498404 
C     3.1128491   -2.1613187    0.0567846 
C     2.9321796   -1.4242636    1.2537997 
C     2.3679669   -1.4276446   -2.0025009 
C     3.3569169   -1.2082046   -1.0168993 
C     0.2658123   -0.3543353   -2.7780541 
C     1.7052930   -0.2956726   -2.5876457 
C    -1.8469920    0.9013864   -2.2127351 
C    -0.4899074    0.9079541   -2.7330062 
C    -3.0039189    1.7340191   -0.1684506 
C    -2.3496452    1.9992178   -1.4327679 
C    -2.0339917    2.4143231    1.9558663 
C    -2.6592701    2.7612512    0.7386199 
C    -0.8931119    3.3190631    2.0885893 
C     0.4633431    1.4832296    2.8677409 
C     1.5752359    0.6648520    2.5901293 
C     0.3745913    2.7856000    2.3405118 
C     3.2511151   -0.0207868    0.9827674 
C     3.5659094    0.0700450   -0.4456847 
C     2.5613637    1.0427367    1.6087627 
C     2.3318737    0.9708320   -2.3453332 
C     3.1789077    1.1701871   -1.1787497 
C     0.2016045    2.1631049   -2.6335315 
C     1.5964721    2.1697681   -2.4896933 
C    -1.6028118    3.2345928   -1.2965420 
C    -1.8381700    3.7502974    0.0305743 
C    -0.7738781    4.0993706    0.8587235 
C    -0.3275233    3.3016570   -1.8453314 
C     1.3368554    3.2139640    1.3056482 
C     2.3756724    2.3358761    0.8914941 
C     2.7459844    2.3897564   -0.5038450 
C     1.9356330    3.0998188   -1.4170399 
C     0.5759074    4.0211609    0.3623766 
C     0.7731853    3.8108572   -1.0247008 
