60 

C     1.0166029    4.1881642    0.2669942 
C    -0.2546681    4.2335288    0.7603044 
C    -1.1949952    4.1036960   -0.3882141 
C     0.9206423    3.9940064   -1.2136748 
C    -0.4419476    3.6636339   -1.5410989 
C     1.9434668    3.1558521   -1.5619397 
C     1.9797448    3.2394122    0.7844773 
C     2.7126912    2.7801278   -0.3401975 
C     1.5879973    2.2512629    1.7620601 
C    -0.6815116    3.3000427    1.7926949 
C     0.1969142    2.2621343    2.2524717 
C    -2.2594089    3.3681455    0.0530437 
C    -2.0120202    2.9353766    1.4564849 
C    -2.7384239    2.2410806   -0.6653235 
C    -0.7468914    2.3798071   -2.1543464 
C    -1.9925994    1.6962866   -1.7700836 
C     1.7112395    1.9613923   -2.2991611 
C     0.3739408    1.5238669   -2.5886621 
C     3.1434150    1.4569092   -0.4831584 
C     2.6786315    1.0065681   -1.7870226 
C     2.3259842    0.9932494    1.7686838 
C     3.1076443    0.5500653    0.6167298 
C     1.8280235   -0.0311595    2.6227619 
C    -0.4290701    0.9827402    2.6446516 
C     0.4228780   -0.0782866    2.9657148 
C    -2.5319237    1.6399086    1.6049421 
C    -3.2151200    1.3273411    0.3565488 
C    -1.7886993    0.6147977    2.2648863 
C    -3.4700016    0.0409730    0.0462234 
C    -2.2120046    0.2778064   -2.0773541 
C    -3.2079899   -0.4269514   -1.3059226 
C     0.1785460    0.0800728   -2.7982304 
C    -1.1419616   -0.5281804   -2.6714923 
C     2.5049168   -0.3289509   -2.0046695 
C     1.3132267   -0.7869502   -2.6626993 
C     3.2281180   -0.8783221    0.3091361 
C     2.9489918   -1.3033513   -1.0338857 
C     2.2881091   -1.3606901    2.5238967 
C     2.9428859   -1.8307832    1.3452873 
C    -0.0008788   -1.4781702    2.9411266 
C     1.1788231   -2.2684423    2.8357985 
C    -2.1417558   -0.7843862    1.9953929 
C    -3.1385369   -1.0245446    0.9862668 
C    -1.2071670   -1.8673252    2.2877825 
C    -3.2164555   -1.8322941   -1.1990597 
C    -3.1306667   -2.2069907    0.2312219 
C    -1.2153210   -1.9698135   -2.5762128 
C    -2.2810046   -2.6028787   -1.8679480 
C     1.2070404   -2.1803366   -2.3146154 
C     2.2133378   -2.5113917   -1.3116746 
C    -0.0374102   -2.7770315   -2.2958928 
C     2.3568687   -3.1039973    1.0337052 
C     1.2364732   -3.3449396    1.9532357 
C     1.8998077   -3.4127854   -0.2722207 
C    -1.1791124   -3.0981493    1.4540166 
C    -2.1393255   -3.2210084    0.3936770 
C    -1.7194137   -3.5922248   -0.9299283 
C    -0.3551070   -3.7442602   -1.2303703 
C     0.0914411   -3.7361333    1.2088231 
C     0.5429895   -3.9375196   -0.1739815 
