60 

C     1.3741519    1.4804981   -3.4302401 
C     2.5395718    1.3418209   -2.7095419 
C     2.9487680   -0.0831784   -2.7125941 
C     0.9796104    0.1576222   -3.9267985 
C     1.9072661   -0.8122755   -3.3772083 
C    -0.4091074    0.0323450   -3.8026716 
C     0.2280538    2.1003906   -2.8368688 
C    -0.9042776    1.3281946   -3.3134898 
C     0.2454828    2.5534841   -1.4782488 
C     2.6428258    1.8506837   -1.3905766 
C     1.5144590    2.4528327   -0.7314680 
C     3.3971809   -0.4038374   -1.4257380 
C     3.4322150    0.8581664   -0.6753361 
C     2.9235998   -1.5824623   -0.7299678 
C     1.3643877   -1.9091136   -2.6917864 
C     1.9170929   -2.3318959   -1.4245143 
C    -0.9965028   -1.1736557   -3.2456069 
C    -0.0897410   -2.1189524   -2.6599990 
C    -2.2801033   -1.0685771   -2.6507065 
C    -2.1043946    1.4096684   -2.6619336 
C    -2.9167622    0.2340927   -2.5568916 
C    -1.0312783    2.5821100   -0.7350783 
C    -2.2123894    2.1436305   -1.4040899 
C    -1.0312783    2.5821100    0.7350783 
C     1.5144590    2.4528327    0.7314680 
C     0.2454828    2.5534841    1.4782488 
C     3.4322150    0.8581664    0.6753361 
C     2.6428258    1.8506837    1.3905766 
C     2.9235998   -1.5824623    0.7299678 
C     3.3971809   -0.4038374    1.4257380 
C     1.9170929   -2.3318959    1.4245143 
C     0.8330785   -2.9273313   -0.6870102 
C    -0.4179138   -2.7540001   -1.4267235 
C     0.8330785   -2.9273313    0.6870102 
C    -2.6266787   -1.7672828   -1.4385210 
C    -1.6551760   -2.5362863   -0.7428892 
C    -3.6965281    0.3232366   -1.3856423 
C    -3.3276944    1.5502894   -0.6893865 
C    -3.5791968   -0.9302169   -0.6937378 
C    -2.2123894    2.1436305    1.4040899 
C    -3.3276944    1.5502894    0.6893865 
C    -2.1043946    1.4096684    2.6619336 
C     0.2280538    2.1003906    2.8368688 
C    -0.9042776    1.3281946    3.3134898 
C     2.5395718    1.3418209    2.7095419 
C     2.9487680   -0.0831784    2.7125941 
C     1.3741519    1.4804981    3.4302401 
C     1.3643877   -1.9091136    2.6917864 
C    -0.4091074    0.0323450    3.8026716 
C     1.9072661   -0.8122755    3.3772083 
C     0.9796104    0.1576222    3.9267985 
C    -0.4179138   -2.7540001    1.4267235 
C    -1.6551760   -2.5362863    0.7428892 
C    -0.0897410   -2.1189524    2.6599990 
C    -0.9965028   -1.1736557    3.2456069 
C    -3.5791968   -0.9302169    0.6937378 
C    -3.6965281    0.3232366    1.3856423 
C    -2.9167622    0.2340927    2.5568916 
C    -2.6266787   -1.7672828    1.4385210 
C    -2.2801033   -1.0685771    2.6507065 
