60 

C    -0.2382182   -4.6167707    0.0000000 
C     1.1516768   -4.3303763    0.0000000 
C     1.4339789   -3.6568716    1.2476856 
C    -0.8720564   -4.0909304    1.1749682 
C     0.1462655   -3.3998285    1.9291402 
C    -2.0543964   -3.4155207    0.7489101 
C    -0.8720564   -4.0909304   -1.1749682 
C    -2.0543964   -3.4155207   -0.7489101 
C     1.4339789   -3.6568716   -1.2476856 
C     0.1462655   -3.3998285   -1.9291402 
C     2.4002954   -2.6605531   -1.2520192 
C     2.4002954   -2.6605531    1.2520192 
C     3.0285704   -2.3302879    0.0000000 
C     2.1934087   -1.3914612    1.9513013 
C    -0.1225011   -2.1007958    2.4594143 
C     0.9421725   -1.0649921    2.5136747 
C    -2.4011868   -2.2409636    1.3960446 
C    -1.4721957   -1.6275512    2.3276834 
C    -3.0860144   -1.1532263    0.7059183 
C    -2.4011868   -2.2409636   -1.3960446 
C    -3.0860144   -1.1532263   -0.7059183 
C    -0.1225011   -2.1007958   -2.4594143 
C    -1.4721957   -1.6275512   -2.3276834 
C     2.1934087   -1.3914612   -1.9513013 
C     0.9421725   -1.0649921   -2.5136747 
C     3.3602894   -0.9459684    0.0000000 
C     2.9202861   -0.3618398    1.2207504 
C     2.9202861   -0.3618398   -1.2207504 
C     2.5464439    0.9842798    1.2438484 
C     0.6053369    0.3593873    2.6513501 
C     1.5313342    1.3852171    2.2070218 
C    -1.7648694   -0.2366608    2.3678837 
C    -2.8028765    0.0631753    1.3902477 
C    -0.7966332    0.7440335    2.7006007 
C    -2.8165242    1.3290085    0.7371284 
C    -2.8028765    0.0631753   -1.3902477 
C    -1.7648694   -0.2366608   -2.3678837 
C    -2.8165242    1.3290085   -0.7371284 
C     0.6053369    0.3593873   -2.6513501 
C    -0.7966332    0.7440335   -2.7006007 
C     2.5464439    0.9842798   -1.2438484 
C     2.6583037    1.7439705    0.0000000 
C     1.5313342    1.3852171   -2.2070218 
C     2.2530571    3.0993654    0.0000000 
C     1.1332655    2.7583328    2.1840588 
C     1.6440901    3.6531003    1.1755190 
C    -1.1827649    2.0926252    2.4421055 
C    -2.1840569    2.3961550    1.4055098 
C    -0.2291287    3.1210599    2.4274365 
C     0.5478847    4.4908518    0.7199643 
C    -1.7515462    3.5935930    0.7212382 
C    -0.6148512    4.1204094    1.4243868 
C    -2.1840569    2.3961550   -1.4055098 
C    -1.1827649    2.0926252   -2.4421055 
C    -1.7515462    3.5935930   -0.7212382 
C     1.1332655    2.7583328   -2.1840588 
C     1.6440901    3.6531003   -1.1755190 
C     0.5478847    4.4908518   -0.7199643 
C    -0.2291287    3.1210599   -2.4274365 
C    -0.6148512    4.1204094   -1.4243868 
