60 

C     4.8642126   -0.5067265    0.0000000 
C     4.1851173   -1.0333034    1.1541814 
C     3.7766403    0.0472222    1.9732249 
C     4.6735023    0.9362586    0.0000000 
C     4.0364332    1.3010372    1.2251782 
C     4.0364332    1.3010372   -1.2251782 
C     4.1851173   -1.0333034   -1.1541814 
C     3.7766403    0.0472222   -1.9732249 
C     3.1524314   -1.9570983    0.7291444 
C     3.1524314   -1.9570983   -0.7291444 
C     1.9117549   -2.0469386    1.4210833 
C     2.4651054    0.0891278    2.4961938 
C     1.5673198   -1.0157226    2.3879003 
C     2.8288886    2.0307794    1.2320190 
C     1.9092949    1.3807479    2.1818436 
C     2.8288886    2.0307794   -1.2320190 
C     2.2198964    2.4867287    0.0000000 
C     2.4651054    0.0891278   -2.4961938 
C     1.9092949    1.3807479   -2.1818436 
C     1.9117549   -2.0469386   -1.4210833 
C     1.5673198   -1.0157226   -2.3879003 
C     0.8310041   -2.7235714    0.7313390 
C     0.8310041   -2.7235714   -0.7313390 
C    -0.4027388   -2.8202858    1.3969027 
C     0.1777694   -0.7700575    2.6792742 
C    -0.7126148   -1.8523624    2.4435489 
C     0.5330894    1.6158522    2.1756836 
C    -0.3711960    0.5773589    2.6514858 
C     0.8197468    2.7593255    0.0000000 
C     0.0449719    2.6033524    1.2301917 
C     0.5330894    1.6158522   -2.1756836 
C     0.0449719    2.6033524   -1.2301917 
C     0.1777694   -0.7700575   -2.6792742 
C    -0.3711960    0.5773589   -2.6514858 
C    -0.4027388   -2.8202858   -1.3969027 
C    -0.7126148   -1.8523624   -2.4435489 
C    -1.6431097   -3.1430508    0.7060846 
C    -1.6431097   -3.1430508   -0.7060846 
C    -2.1070753   -1.6473945    2.4240184 
C    -2.7086460   -2.4737906    1.3792311 
C    -1.8096257    0.7827197    2.5207582 
C    -2.6828795   -0.3617370    2.4167970 
C    -1.3271786    2.8701377    1.2117426 
C    -2.2702441    1.9916484    1.9158255 
C    -1.3271786    2.8701377   -1.2117426 
C    -1.9538283    3.3090129    0.0000000 
C    -1.8096257    0.7827197   -2.5207582 
C    -2.2702441    1.9916484   -1.9158255 
C    -2.1070753   -1.6473945   -2.4240184 
C    -2.7086460   -2.4737906   -1.3792311 
C    -2.6828795   -0.3617370   -2.4167970 
C    -3.6803341   -1.6895316    0.7115717 
C    -3.7674612   -0.4020392    1.4245598 
C    -3.6803341   -1.6895316   -0.7115717 
C    -3.7674612   -0.4020392   -1.4245598 
C    -3.4982294    1.9947559    1.1593471 
C    -3.2866884    2.8079232    0.0000000 
C    -3.4982294    1.9947559   -1.1593471 
C    -4.1069081    0.7558828    0.7454582 
C    -4.1069081    0.7558828   -0.7454582 
