60 

C     1.1890272   -4.5537920   -0.2948469 
C     1.5917840   -3.7833171   -1.4890290 
C     2.6405638   -2.9444280   -1.1060605 
C     1.8160334   -3.9424079    0.8575245 
C     2.7706062   -3.0357926    0.3874840 
C     0.7722314   -3.4251909    1.7335083 
C    -0.1903197   -4.4149162   -0.1473626 
C    -0.5020407   -3.8195944    1.1546845 
C     0.4235267   -3.1968268   -2.0877389 
C    -0.7178122   -3.7499353   -1.3277468 
C     0.3831961   -1.8126617   -2.4675521 
C     2.6245624   -1.5801006   -1.4413051 
C     1.5653280   -0.9929889   -2.2148270 
C     2.8651913   -1.7195265    0.8931726 
C     3.0190888   -0.8460540   -0.2492051 
C     0.8934492   -2.1271575    2.3289899 
C     2.0083593   -1.2402234    1.9423503 
C    -0.3273458   -1.4822387    2.6940942 
C    -1.6617428   -3.0200215    1.2890137 
C    -1.6011220   -1.9154627    2.1896043 
C    -1.8753163   -3.0361132   -1.2216717 
C    -2.4941489   -2.8192769    0.1030891 
C    -0.9170148   -1.1193032   -2.4991650 
C    -2.0545626   -1.8155115   -1.9890753 
C    -0.9795179    0.3374084   -2.5470312 
C     1.4794877    0.4447117   -2.2074263 
C     0.2458738    1.1132718   -2.6272198 
C     2.8569708    0.5175244   -0.1575369 
C     2.3612537    1.2007450   -1.3374955 
C     1.9004093    0.1905515    2.0950539 
C     2.5932169    1.0719711    1.1636136 
C    -0.4004859   -0.0654432    2.9053721 
C     0.7148048    0.7658267    2.7311852 
C    -2.4529165   -0.7304414    2.0658502 
C    -1.7330124    0.4019284    2.5304094 
C    -3.2991746   -1.6871958   -0.0061219 
C    -3.0875547   -1.0976652   -1.3263804 
C    -3.3016741   -0.6040271    0.9392279 
C    -2.1426080    1.0262138   -1.9817164 
C    -3.0709091    0.2849144   -1.2087055 
C    -3.2880316    0.6311307    0.2082163 
C    -2.0564495    2.3927707   -1.6153814 
C     0.1746725    2.5478233   -2.5513141 
C    -1.0462855    3.2005445   -2.1280037 
C     2.2507799    2.6138246   -1.2487859 
C     1.2526223    3.3063314   -1.9951790 
C     2.4153161    2.4723131    1.2324422 
C     2.4244231    3.2434523    0.0288300 
C     0.4380632    2.1747503    2.6076930 
C     1.3945331    3.0368620    2.0790133 
C    -1.9164156    1.7067676    1.9709450 
C    -2.6998569    1.8132386    0.7282145 
C    -2.3308315    2.8056673   -0.2183322 
C    -0.8918872    2.6538697    2.1890272 
C    -0.7004788    4.2042541   -1.1252148 
C     0.6923251    4.3404782   -1.1216677 
C     1.3943874    4.2904059    0.1277962 
C     0.7101232    4.1109048    1.3333065 
C    -1.4188365    3.8708248    0.0964473 
C    -0.7038586    3.8063331    1.3329397 
