60 

C     1.3343430    4.4892222    0.0000000 
C     0.4877648    4.2701105    1.1520213 
C    -0.8705999    4.1998100    0.7393422 
C     0.4877648    4.2701105   -1.1520213 
C    -0.8705999    4.1998100   -0.7393422 
C     1.0032871    3.1764776   -1.9393625 
C     2.2606105    3.4124485    0.0000000 
C     2.1485031    2.6415070   -1.2111383 
C     1.0032871    3.1764776    1.9393625 
C     2.1485031    2.6415070    1.2111383 
C     0.1254654    2.2736316    2.6034264 
C    -1.7075312    3.1512842    1.1786212 
C    -1.2997313    2.2570681    2.2322944 
C    -1.7075312    3.1512842   -1.1786212 
C    -2.3406927    2.5721993    0.0000000 
C     0.1254654    2.2736316   -2.6034264 
C    -1.2997313    2.2570681   -2.2322944 
C     0.7173186    1.0432910   -2.9892220 
C     2.4532948    1.2482949   -1.2286174 
C     1.8965724    0.5424419   -2.3226302 
C     2.4532948    1.2482949    1.2286174 
C     2.7161993    0.5092587    0.0000000 
C     0.7173186    1.0432910    2.9892220 
C     1.8965724    0.5424419    2.3226302 
C    -0.0626209   -0.1123922    3.3363321 
C    -1.9781307    1.0119839    2.3099787 
C    -1.4125859   -0.1350508    2.9755722 
C    -2.8417015    1.2489879    0.0000000 
C    -2.7766808    0.5067555    1.2139564 
C    -1.9781307    1.0119839   -2.3099787 
C    -2.7766808    0.5067555   -1.2139564 
C    -0.0626209   -0.1123922   -3.3363321 
C    -1.4125859   -0.1350508   -2.9755722 
C     1.9002007   -0.8881876   -2.3618780 
C     0.7376463   -1.3010248   -3.1213894 
C     2.6522067   -0.9442325    0.0000000 
C     2.3750846   -1.6541817   -1.2563811 
C     1.9002007   -0.8881876    2.3618780 
C     0.7376463   -1.3010248    3.1213894 
C     2.3750846   -1.6541817    1.2563811 
C     0.1307164   -2.5210080    2.8359237 
C    -1.9729912   -1.3406036    2.3718725 
C    -2.7266034   -0.9325754    1.2110212 
C    -1.2653472   -2.5265084    2.3565094 
C    -2.7266034   -0.9325754   -1.2110212 
C    -1.9729912   -1.3406036   -2.3718725 
C    -2.6611563   -1.6981569    0.0000000 
C     0.1307164   -2.5210080   -2.8359237 
C    -1.2653472   -2.5265084   -2.3565094 
C     1.9518941   -3.0405998   -1.2298397 
C     0.8381212   -3.4520451   -2.0594935 
C     1.9518941   -3.0405998    1.2298397 
C     0.8381212   -3.4520451    2.0594935 
C     1.8376812   -3.7441001    0.0000000 
C    -1.3538152   -3.4489827    1.2330925 
C    -1.9708941   -3.0059512    0.0000000 
C    -1.3538152   -3.4489827   -1.2330925 
C    -0.1059459   -4.1599605   -1.2029512 
C    -0.1059459   -4.1599605    1.2029512 
C     0.5468320   -4.4587470    0.0000000 
