60 

C    -1.0027297    4.7081562   -0.7817851 
C    -2.0201472    4.2851099    0.0444025 
C    -1.4816834    3.9195909    1.3673232 
C     0.2490735    4.6389026   -0.0185310 
C    -0.0506197    4.1836967    1.3382431 
C     1.1540359    3.8726239   -0.7684796 
C    -0.9163668    3.7497990   -1.8891577 
C     0.3868476    3.2638149   -1.9203994 
C    -2.6749574    3.1163903   -0.5304978 
C    -1.9819733    2.7451581   -1.7352652 
C    -1.9370871    2.6237214    1.6684712 
C    -2.7561638    2.1596737    0.5096883 
C    -1.0848900    1.6466916    2.3193179 
C     0.7985022    3.2424653    1.9289583 
C     0.2644960    2.0280612    2.5386986 
C     2.1499542    3.0851183   -0.1255326 
C     2.0306151    2.8475747    1.2797952 
C     2.7390061    2.0489215   -0.9320427 
C     0.6723647    1.9100048   -2.3275455 
C     1.9670516    1.4423952   -2.0509656 
C    -1.7189971    1.3750312   -1.9831078 
C    -0.4093045    0.9328054   -2.4569548 
C    -2.7547144    0.8148912    0.1952957 
C    -2.4202339    0.4065422   -1.1620733 
C    -1.3974170    0.2384191    2.1989057 
C    -2.4382504   -0.1297581    1.2551732 
C    -0.4230396   -0.7989366    2.4916744 
C     1.2808172    1.0090799    2.5246731 
C     2.4149165    1.5426543    1.7979898 
C     0.9716330   -0.3750450    2.5176773 
C     3.4819501    1.0341701   -0.3425833 
C     3.2291474    0.6929902    1.0479480 
C     2.2817674    0.0524048   -2.1071587 
C     3.2940053   -0.1834754   -1.1103608 
C    -0.1034521   -0.4785454   -2.4851580 
C     1.2754829   -0.9321907   -2.3234500 
C    -2.2884931   -0.9756403   -1.4276368 
C    -1.1669880   -1.4459503   -2.2261391 
C    -2.6714885   -1.4473291    0.9525206 
C    -2.8516118   -1.8637929   -0.4400632 
C    -0.7577351   -2.2040209    2.2675931 
C    -2.0217766   -2.5379822    1.6493626 
C     0.3087995   -3.1568774    2.0183566 
C     1.9593002   -1.2684581    1.9217603 
C     2.9968114   -0.7193101    1.1108914 
C     3.1404139   -1.2665738   -0.2451863 
C     1.5894337   -2.5984922    1.6239187 
C     1.5306490   -2.2816722   -1.8201243 
C     2.4186239   -2.4059123   -0.6647569 
C     2.0150911   -3.2666251    0.3980040 
C    -0.8538672   -2.8295280   -2.1747819 
C     0.5068187   -3.2542168   -1.9535025 
C    -2.6337504   -3.2358367   -0.4883693 
C    -2.1940203   -3.6996605    0.8422447 
C    -1.7077563   -3.7744825   -1.4413555 
C     0.0981495   -4.3358266    1.2400105 
C     1.1202368   -4.3181157    0.1625472 
C     0.4520859   -4.4275962   -1.0775463 
C    -1.1388964   -4.6243803    0.6270497 
C    -0.9196696   -4.7806272   -0.8279837 
