60 

C     0.1985784    4.6585387   -0.3204327 
C    -0.0427236    4.0454168   -1.6108814 
C    -1.3679834    3.6007944   -1.6396540 
C    -0.9280167    4.3017128    0.5406035 
C    -1.9372214    3.7485797   -0.2720513 
C    -0.4565123    3.5115326    1.6526535 
C     1.3228920    4.0137110    0.2253778 
C     1.0046445    3.4599108    1.5186383 
C     1.0050033    3.0444780   -1.8728314 
C     1.8962725    3.0908395   -0.7574665 
C     0.7168380    1.7763050   -2.4825011 
C    -1.6910850    2.3125774   -2.1171582 
C    -0.6883028    1.4648816   -2.7167941 
C    -2.5587661    2.5290304    0.0547287 
C    -2.5786969    1.7054012   -1.1581100 
C    -1.1388051    2.3254987    2.0607802 
C    -2.2789350    1.8387358    1.2755662 
C    -0.3518535    1.3014265    2.7638965 
C     1.7180454    2.3446949    1.9269756 
C     1.0773965    1.3041384    2.6778940 
C     2.6077940    1.9304618   -0.3489281 
C     2.6722440    1.6855408    1.0519391 
C     1.6612063    0.6699221   -2.2990615 
C     2.6578435    0.7889860   -1.2548787 
C     1.2923480   -0.6790174   -2.7649576 
C    -1.0574881    0.1124145   -2.8450362 
C    -0.0870043   -0.9355924   -3.0170113 
C    -2.8022849    0.3173678   -1.1154009 
C    -2.1974654   -0.4360500   -2.1647076 
C    -2.7049426    0.4472936    1.3729090 
C    -3.0798448   -0.3098677    0.1629107 
C    -0.9242388    0.0530800    3.0172811 
C    -2.2236376   -0.3072197    2.4839130 
C    -0.1214334   -1.1815161    3.1012208 
C     1.8353220    0.0695331    2.5424500 
C     2.8341489    0.3395404    1.5450615 
C     1.2375870   -1.2083726    2.6410235 
C     3.2499377   -0.4086667   -0.7353721 
C     3.2332164   -0.6639062    0.6995149 
C     2.0796463   -1.8241302   -2.3711825 
C     3.0735908   -1.6467411   -1.3683358 
C     1.4563194   -3.0970757   -2.1012004 
C    -0.7146679   -2.1889998   -2.6321240 
C    -1.9927034   -1.8522579   -2.0427870 
C     0.0557643   -3.2427425   -2.1114232 
C    -3.0484364   -1.7415432    0.1843125 
C    -2.4457367   -2.5043608   -0.9016246 
C    -2.2969891   -1.7248499    2.5095812 
C    -0.9689382   -2.2533921    2.8405114 
C    -2.7098942   -2.4268744    1.3877173 
C    -0.3627951   -3.8640079   -0.8490366 
C    -1.6187983   -3.5804345   -0.3136938 
C    -0.6070559   -3.3134302    1.9192234 
C    -1.7509136   -3.5089599    1.0910286 
C     1.6924887   -2.3258006    1.7892765 
C     2.7849868   -2.0438495    0.9096413 
C     2.9110278   -2.6959122   -0.3499261 
C     1.9300099   -3.5727102   -0.8006876 
C     0.7179180   -3.3587039    1.3661532 
C     0.8111001   -3.8953592    0.0224728 
