60 

C     0.5310578   -0.4942911   -4.2779431 
C     1.6743431    0.1329264   -3.7313143 
C     1.3733770    1.5394276   -3.5102166 
C    -0.5310578    0.4942911   -4.2779431 
C    -0.0419904    1.6998350   -3.6757773 
C    -1.6743431   -0.1329264   -3.7313143 
C     0.0419904   -1.6998350   -3.6757773 
C    -1.3733770   -1.5394276   -3.5102166 
C     0.7774613   -2.3385771   -2.6027279 
C     2.2823731   -0.3582839   -2.5444958 
C     1.9054445   -1.6197608   -1.9732630 
C     2.0168430    1.9565593   -2.3099860 
C     2.5912143    0.7892730   -1.6652744 
C     1.4164314    2.9203997   -1.5292032 
C    -0.7774613    2.3385771   -2.6027279 
C    -0.0095120    3.1904573   -1.7524406 
C    -2.2823731    0.3582839   -2.5444958 
C    -1.9054445    1.6197608   -1.9732630 
C    -2.0168430   -1.9565593   -2.3099860 
C    -2.5912143   -0.7892730   -1.6652744 
C     0.0095120   -3.1904573   -1.7524406 
C    -1.4164314   -2.9203997   -1.5292032 
C     0.5281483   -3.5597306   -0.5054292 
C     2.2421756   -1.8176468   -0.5761326 
C     1.6473216   -2.9294183    0.0968853 
C     2.6624147    0.6770015   -0.2708248 
C     2.6624147   -0.6770015    0.2708248 
C     1.6473216    2.9294183   -0.0968853 
C     2.2421756    1.8176468    0.5761326 
C    -0.5281483    3.5597306   -0.5054292 
C     0.5281483    3.5597306    0.5054292 
C    -2.2421756    1.8176468   -0.5761326 
C    -1.6473216    2.9294183    0.0968853 
C    -2.6624147   -0.6770015   -0.2708248 
C    -2.6624147    0.6770015    0.2708248 
C    -1.6473216   -2.9294183   -0.0968853 
C    -0.5281483   -3.5597306    0.5054292 
C    -2.2421756   -1.8176468    0.5761326 
C     1.4164314   -2.9203997    1.5292032 
C    -0.0095120   -3.1904573    1.7524406 
C     2.5912143   -0.7892730    1.6652744 
C     2.0168430   -1.9565593    2.3099860 
C     1.9054445    1.6197608    1.9732630 
C     2.2823731    0.3582839    2.5444958 
C     0.0095120    3.1904573    1.7524406 
C    -1.4164314    2.9203997    1.5292032 
C     0.7774613    2.3385771    2.6027279 
C    -2.5912143    0.7892730    1.6652744 
C    -2.0168430    1.9565593    2.3099860 
C    -1.9054445   -1.6197608    1.9732630 
C    -0.7774613   -2.3385771    2.6027279 
C    -2.2823731   -0.3582839    2.5444958 
C     1.3733770   -1.5394276    3.5102166 
C     1.6743431   -0.1329264    3.7313143 
C    -0.0419904   -1.6998350    3.6757773 
C     0.0419904    1.6998350    3.6757773 
C    -1.3733770    1.5394276    3.5102166 
C    -1.6743431    0.1329264    3.7313143 
C     0.5310578    0.4942911    4.2779431 
C    -0.5310578   -0.4942911    4.2779431 
