60 

C     1.7130913   -4.1238226   -1.4950901 
C     1.4065043   -4.4665594   -0.1106004 
C     0.0505888   -4.8747040   -0.0355465 
C     0.4105424   -3.9041708   -2.1266624 
C    -0.6062042   -4.4109337   -1.3059190 
C     0.3203640   -2.5266407   -2.5468034 
C     2.3429808   -2.8764426   -1.4726271 
C     1.6054001   -1.9155616   -2.2600645 
C     1.8507835   -3.3976629    0.7685097 
C     2.5327808   -2.4494740   -0.0891232 
C     1.0152088   -2.9076883    1.8505603 
C    -0.7418018   -4.4849286    1.0300409 
C    -0.2619141   -3.5668941    2.0534508 
C    -1.7483972   -3.6325791   -0.9396584 
C    -1.9740705   -3.8984928    0.4738044 
C    -0.8339888   -1.7397359   -2.2774270 
C    -1.8910561   -2.2717579   -1.4069068 
C    -0.6622277   -0.3107640   -2.3921414 
C     1.7340765   -0.5471099   -1.9966761 
C     0.6622277    0.3107640   -2.3921414 
C     2.6151481   -1.0900764    0.2145168 
C     2.5091488   -0.0974217   -0.8476396 
C     1.1389983   -1.4946242    2.1979596 
C     2.1535259   -0.6852511    1.5284871 
C     0.0067161   -0.7293343    2.6927445 
C    -1.3761143   -2.7381420    2.3852782 
C    -2.4061375   -2.9121080    1.3355163 
C    -1.2605454   -1.3687338    2.6254495 
C    -2.5511667   -1.2923678   -0.5401363 
C    -2.7384435   -1.6211110    0.8567754 
C    -2.2658246   -0.6606742    1.8299287 
C    -1.7340765    0.5471099   -1.9966761 
C    -2.5091488    0.0974217   -0.8476396 
C    -1.6054001    1.9155616   -2.2600645 
C     0.8339888    1.7397359   -2.2774270 
C    -0.3203640    2.5266407   -2.5468034 
C     2.5511667    1.2923678   -0.5401363 
C     1.8910561    2.2717579   -1.4069068 
C     2.2658246    0.6606742    1.8299287 
C     2.7384435    1.6211110    0.8567754 
C    -0.0067161    0.7293343    2.6927445 
C     1.2605454    1.3687338    2.6254495 
C    -2.1535259    0.6852511    1.5284871 
C    -2.6151481    1.0900764    0.2145168 
C    -1.1389983    1.4946242    2.1979596 
C    -2.3429808    2.8764426   -1.4726271 
C    -2.5327808    2.4494740   -0.0891232 
C    -0.4105424    3.9041708   -2.1266624 
C    -1.7130913    4.1238226   -1.4950901 
C     1.7483972    3.6325791   -0.9396584 
C     0.6062042    4.4109337   -1.3059190 
C     2.4061375    2.9121080    1.3355163 
C     1.3761143    2.7381420    2.3852782 
C     1.9740705    3.8984928    0.4738044 
C    -1.0152088    2.9076883    1.8505603 
C    -1.8507835    3.3976629    0.7685097 
C    -1.4065043    4.4665594   -0.1106004 
C    -0.0505888    4.8747040   -0.0355465 
C     0.2619141    3.5668941    2.0534508 
C     0.7418018    4.4849286    1.0300409 
