60 

C     1.8398307   -3.5791086    0.5011718 
C     0.8028492   -4.0323652   -0.3356570 
C    -0.4098070   -4.0559312    0.4455189 
C     1.2552922   -3.1871483    1.7952775 
C    -0.1326323   -3.3569562    1.6947292 
C     1.8363411   -1.9378019    2.1680571 
C     2.7444054   -2.5826098    0.0956749 
C     2.9270526   -1.7008690    1.2540406 
C     2.6316402   -1.9934834   -1.2228208 
C     0.5295062   -3.3415190   -1.5631683 
C     1.4357253   -2.3243535   -2.0228005 
C    -1.4643540   -3.6023895   -0.3647817 
C    -0.9159944   -3.1422023   -1.6410781 
C    -2.4997506   -2.8764049    0.2503586 
C    -1.0072989   -2.2949648    2.1700184 
C    -2.2835626   -2.2389209    1.5719823 
C     1.0446341   -0.8348199    2.6309115 
C    -0.3973782   -1.0465541    2.7087294 
C     1.5852552    0.5342619    2.4772751 
C     3.4159965   -0.4209456    1.0907757 
C     2.8196339    0.7021278    1.7854861 
C     3.2161958   -0.6986684   -1.3663116 
C     3.7473724   -0.0124663   -0.2318423 
C     2.6148841    0.3424331   -2.1859272 
C     0.8454383   -1.2578004   -2.7714580 
C     1.4356205    0.0699443   -2.8338259 
C    -1.4775414   -1.9968183   -2.2710663 
C    -0.5713397   -1.0839844   -2.8781303 
C    -3.2266391   -1.9616667   -0.5239416 
C    -2.7112599   -1.4389802   -1.7443844 
C    -3.0538405   -1.0042777    1.5753918 
C    -3.6853265   -0.8534250    0.3100601 
C    -1.2219652    0.1053841    2.7801121 
C    -2.5430511    0.1328620    2.2018408 
C     0.6906267    1.6982480    2.5557620 
C    -0.6989542    1.4535076    2.7290078 
C     1.0395652    2.9321451    1.8866708 
C     3.0206756    1.8667053    0.9253911 
C     3.5013506    1.4013289   -0.3404756 
C     2.7671533    1.6549406   -1.5262254 
C     2.1291341    2.9141092    0.9184327 
C     1.7359751    2.6420977   -1.5379706 
C     1.6231659    3.4407046   -0.3431571 
C     0.3808557    1.0670405   -2.9086442 
C    -0.8499244    0.3453653   -2.9223940 
C     0.4955175    2.3544412   -2.3003133 
C    -2.9290766   -0.0159819   -1.6962487 
C    -3.5596987    0.3420021   -0.4087682 
C    -2.0254995    0.8984326   -2.3099938 
C    -2.7584901    1.4437526    1.6293689 
C    -1.7104987    2.3073377    2.1266119 
C    -3.1976814    1.5530281    0.2623496 
C     0.0411661    3.7960433    1.3744412 
C     0.3962744    4.0808568   -0.0275367 
C    -1.3342434    3.4473656    1.4044367 
C    -0.7321868    2.9980404   -1.9152565 
C    -1.9463879    2.2230651   -1.8105759 
C    -2.6036913    2.5843157   -0.5422474 
C    -0.7415526    3.9291740   -0.8222439 
C    -1.8595068    3.6123560    0.0493607 
