60 

C    -1.8336848    0.0971471   -3.8268008 
C    -1.9736794    1.3970979   -3.3230849 
C    -2.8087227    1.3401593   -2.1354905 
C    -2.5095683   -0.8135069   -2.8846173 
C    -3.1257256   -0.0513556   -1.8600193 
C    -1.6014664   -1.8539609   -2.5691153 
C    -0.5588175   -0.4391971   -4.1645265 
C    -0.4405989   -1.7236666   -3.4522689 
C     0.5588175    0.4391971   -4.1645265 
C    -0.7947295    2.1635635   -2.9932422 
C     0.4405989    1.7236666   -3.4522689 
C    -2.2128242    2.0983077   -1.1158536 
C    -0.9337263    2.6120711   -1.6086338 
C    -2.4110636    1.7539622    0.2485521 
C    -3.1079258   -0.5079402   -0.5326730 
C    -3.1079258    0.5079402    0.5326730 
C    -1.4742083   -2.2875069   -1.2120988 
C    -2.4110636   -1.7539622   -0.2485521 
C    -0.1504439   -2.6986532   -0.7197766 
C     0.7947295   -2.1635635   -2.9932422 
C     0.9337263   -2.6120711   -1.6086338 
C     1.8336848   -0.0971471   -3.8268008 
C     1.9736794   -1.3970979   -3.3230849 
C     1.6014664    1.8539609   -2.5691153 
C     2.5095683    0.8135069   -2.8846173 
C     0.1504439    2.6986532   -0.7197766 
C     1.4742083    2.2875069   -1.2120988 
C    -1.4742083    2.2875069    1.2120988 
C    -0.1504439    2.6986532    0.7197766 
C    -1.6014664    1.8539609    2.5691153 
C    -3.1257256    0.0513556    1.8600193 
C    -2.5095683    0.8135069    2.8846173 
C    -2.2128242   -2.0983077    1.1158536 
C    -2.8087227   -1.3401593    2.1354905 
C     0.1504439   -2.6986532    0.7197766 
C    -0.9337263   -2.6120711    1.6086338 
C     1.4742083   -2.2875069    1.2120988 
C     2.2128242   -2.0983077   -1.1158536 
C     2.8087227   -1.3401593   -2.1354905 
C     3.1257256    0.0513556   -1.8600193 
C     2.4110636   -1.7539622    0.2485521 
C     2.4110636    1.7539622   -0.2485521 
C     3.1079258    0.5079402   -0.5326730 
C     3.1079258   -0.5079402    0.5326730 
C     0.9337263    2.6120711    1.6086338 
C     2.2128242    2.0983077    1.1158536 
C    -0.4405989    1.7236666    3.4522689 
C     0.7947295    2.1635635    2.9932422 
C    -1.8336848   -0.0971471    3.8268008 
C    -1.9736794   -1.3970979    3.3230849 
C    -0.7947295   -2.1635635    2.9932422 
C    -0.5588175    0.4391971    4.1645265 
C     1.6014664   -1.8539609    2.5691153 
C     0.4405989   -1.7236666    3.4522689 
C     0.5588175   -0.4391971    4.1645265 
C     3.1257256   -0.0513556    1.8600193 
C     2.8087227    1.3401593    2.1354905 
C     1.9736794    1.3970979    3.3230849 
C     2.5095683   -0.8135069    2.8846173 
C     1.8336848    0.0971471    3.8268008 
