60 

C    -0.1199934   -4.4557001    0.5717979 
C     0.3532119   -3.8413244    1.7519133 
C     1.6794259   -3.3583593    1.4553269 
C     0.8761944   -4.2441943   -0.5008582 
C     1.9710193   -3.5175935    0.0477926 
C     0.1820058   -3.7417769   -1.6548030 
C    -1.3671250   -4.0715728    0.0781794 
C    -1.2226947   -3.7117056   -1.3565087 
C    -2.1549624   -3.0725540    0.7137737 
C    -0.3520274   -2.7287217    2.3403702 
C    -1.6393646   -2.3227322    1.8470937 
C     1.8829086   -2.1173386    2.1174053 
C     0.6050274   -1.6926927    2.6990187 
C     2.7130537   -1.1873820    1.5253637 
C     2.5556440   -2.3915994   -0.6616739 
C     3.1073529   -1.3248138    0.1266551 
C     0.7083313   -2.6280178   -2.3339611 
C     1.9674033   -2.0240775   -1.9195948 
C    -0.1486234   -1.5521598   -2.7732603 
C    -2.0114220   -2.5842793   -1.6128165 
C    -2.7511410   -2.3182326   -0.3738756 
C    -1.5072778   -1.4419489   -2.3635734 
C    -3.2432040   -1.0808218   -0.1496424 
C    -2.0306856   -0.9307898    2.0242005 
C    -3.0877630   -0.4558417    1.1668835 
C     0.2785246   -0.3310428    2.7820041 
C    -1.1121790    0.0779438    2.5594660 
C     2.5378583    0.1999819    1.8374710 
C     1.3664143    0.6411652    2.5421408 
C     3.2050924    0.0080928   -0.3631535 
C     3.0282227    0.9636231    0.7375083 
C     1.9653986   -0.6606310   -2.3537574 
C     0.6483370   -0.3623166   -2.8806006 
C     2.6751412    0.3549314   -1.6499685 
C     0.0981442    0.9354600   -2.8139824 
C    -2.0762381   -0.1162115   -2.1398043 
C    -3.1192397   -0.0247799   -1.1587893 
C    -1.2983331    1.1102564   -2.4105984 
C    -3.2975813    0.9028052    0.9718294 
C    -3.3526541    1.1741971   -0.4756126 
C    -1.3869669    1.4979729    2.3809545 
C    -2.5119213    1.9044245    1.5713461 
C     1.0694737    2.0017765    2.4235666 
C    -0.3088603    2.4613172    2.4610880 
C     2.6615884    2.3134138    0.5437204 
C     1.8309917    2.9039964    1.5649857 
C     2.2749111    1.6916445   -1.8446168 
C     1.0458914    1.9857107   -2.5526108 
C     2.4734036    2.7407943   -0.8330243 
C     0.6189797    3.2570758   -2.1267029 
C     1.5721968    3.7806609   -1.1201104 
C    -1.6676427    2.3760701   -1.7780366 
C    -2.6488303    2.3569021   -0.7295686 
C    -2.3358675    2.9525302    0.5770541 
C    -0.6978284    3.4568884   -1.6681339 
C    -0.3597818    3.7058483    1.7899699 
C     0.9615157    3.9904698    1.2478472 
C     0.8092190    4.3929328   -0.1021332 
C    -1.3086481    3.8824109    0.7077568 
C    -0.6040263    4.2699154   -0.4627109 
