60 

C     2.2326172    3.7019645    0.6029756 
C     3.0891170    2.6764662    0.1012875 
C     2.6725469    2.3113429   -1.2110140 
C     1.2045523    3.9389221   -0.3524933 
C     1.4455789    3.0854649   -1.4841933 
C    -0.0737128    3.7748229    0.2997199 
C     1.5855736    3.1261538    1.7558669 
C     0.1791981    3.2673614    1.6474049 
C     3.1926679    1.6190832    1.0932327 
C     2.1690788    1.8509998    2.1044479 
C     3.4145929    0.3277907    0.6707283 
C     2.8018032    0.9511998   -1.6457044 
C     3.3488850   -0.0226483   -0.7332589 
C     1.8220339    0.4653788   -2.5489576 
C     0.3577872    2.4801964   -2.1775681 
C     0.6344931    1.2388722   -2.8278269 
C    -1.2169934    3.3437622   -0.4093385 
C    -1.0315717    2.7475790   -1.7449181 
C    -2.2892502    2.8770771    0.4238168 
C    -0.6691551    2.2875093    2.2230373 
C    -1.9957760    2.2859053    1.7258423 
C     1.3551996    0.7807963    2.5700599 
C    -0.0729804    1.0385971    2.7533295 
C     2.8848343   -0.7863431    1.4212623 
C     1.8192008   -0.6080090    2.3313749 
C     3.0339879   -1.4186602   -0.8166376 
C     2.9212193   -1.9366146    0.5410026 
C     1.4884999   -0.9484917   -2.6259696 
C     2.1459447   -1.9361715   -1.8167626 
C    -0.4071834    0.2856556   -3.0943159 
C     0.1007722   -1.0621582   -2.9199839 
C    -2.0512888    1.8693905   -2.2032317 
C    -1.7102596    0.5760876   -2.7882879 
C    -3.3704387    2.1423426   -0.1425320 
C    -3.2337958    1.6436722   -1.4336858 
C    -2.8367980    1.1180479    1.8563110 
C    -3.6959045    1.0167592    0.7394468 
C    -0.9244479   -0.0862967    2.8692838 
C    -2.2883799   -0.0588535    2.3895331 
C     0.9166304   -1.7545980    2.5242710 
C    -0.4436457   -1.4514137    2.7909982 
C     2.1967022   -3.0768973    0.8197440 
C     1.1939772   -3.0183053    1.8915440 
C     1.4255165   -3.1298199   -1.5322930 
C     1.6471948   -3.8330773   -0.2794739 
C    -0.7011188   -2.1057475   -2.3550804 
C    -0.0024693   -3.2106468   -1.8101247 
C    -2.5530080   -0.4684545   -2.1860851 
C    -3.4974426    0.1949870   -1.3873046 
C    -3.7218538   -0.1923188   -0.0291449 
C    -2.0166352   -1.7353015   -1.8074758 
C    -2.5504118   -1.3298676    1.7716885 
C    -1.4949458   -2.2301695    2.1809564 
C    -3.0934108   -1.3892686    0.4516659 
C    -2.4150550   -2.2786511   -0.5107361 
C     0.1217980   -3.8714126    1.4641493 
C     0.4292520   -4.4025541    0.1545923 
C    -0.6068119   -3.9650419   -0.7358597 
C    -1.2086165   -3.3541045    1.4269490 
C    -1.6578944   -3.3622911    0.0137360 
