60 

C     1.2053557   -5.1719342   -0.4248265 
C     0.9129555   -5.2112562    0.9830921 
C    -0.4791416   -5.1559263    1.1548076 
C    -0.0849078   -4.9715297   -1.1341771 
C    -1.1179462   -4.9796723   -0.1609045 
C     0.0445760   -3.8274011   -2.0053791 
C     1.9412086   -3.9901698   -0.6665915 
C     1.3517813   -3.2041214   -1.7311050 
C     1.4794878   -3.9955807    1.6084079 
C     2.2103358   -3.2872964    0.6094401 
C    -0.8017208   -3.9674044    1.9288758 
C     0.4331237   -3.2743841    2.2829886 
C    -1.9894079   -3.8305647   -0.0697412 
C    -1.7912688   -3.2081056    1.2608002 
C    -1.0257563   -2.9409919   -2.1507229 
C    -2.0876265   -2.9446745   -1.1449628 
C    -0.7843887   -1.5560745   -2.4823010 
C     1.5238265   -1.8054654   -1.7713935 
C     0.5021609   -0.9673284   -2.3862081 
C     2.2367191   -1.8860390    0.6101509 
C     2.2508549   -1.1607955   -0.6707591 
C     0.4452375   -1.8648970    2.2845766 
C     1.5526324   -1.1727944    1.6660731 
C    -1.8556558   -1.7832516    1.4239698 
C    -0.7994430   -1.1183993    2.1475449 
C    -2.4603627   -1.5667690   -0.9241325 
C    -1.8356082   -0.7548767   -1.9288697 
C    -2.4782672   -0.9879568    0.3820168 
C    -1.7448374    0.6453512   -1.8132009 
C     0.6004913    0.4758240   -2.3146802 
C    -0.5706972    1.3304367   -2.2948911 
C     2.3578937    0.2209781   -0.6401015 
C     1.7814944    1.0405399   -1.7191987 
C     1.5810759    0.2465129    1.6622585 
C     2.3778189    0.9028647    0.6602550 
C    -0.7570334    0.3114506    2.1812303 
C     0.5082771    1.0215091    2.2298208 
C    -2.4916779    0.4352401    0.4869161 
C    -2.4548621    1.2534801   -0.7208310 
C    -1.8622793    1.0598101    1.6301639 
C    -2.4108161    2.6461340   -0.6131480 
C    -0.4611154    2.7748289   -2.1270904 
C    -1.5409736    3.4557656   -1.4465899 
C     1.9255168    2.4271521   -1.6542524 
C     0.8556811    3.3454295   -2.0345815 
C     2.5045524    2.2825309    0.7022959 
C     2.6681449    3.0222547   -0.5457990 
C     0.5738510    2.4728586    2.2198788 
C     1.7328966    3.0993845    1.6298490 
C    -1.8390934    2.4648645    1.7179838 
C    -2.4974515    3.2670309    0.6958714 
C    -0.6771877    3.1950949    2.1727911 
C    -1.2900609    4.6732247   -0.6945064 
C    -1.8790668    4.5177373    0.6351011 
C    -0.7535954    4.5124177    1.5622262 
C     1.0703560    4.5582801   -1.2753026 
C     2.1745665    4.3019353   -0.3418128 
C     1.6187088    4.4032891    1.0070562 
C     0.0238436    5.1673900   -0.5648698 
C     0.3768252    5.0540602    0.9164882 
