60 

C     2.0871541   -3.4548705    0.5599656 
C     2.8838532   -2.4948115    1.1454967 
C     3.5734473   -1.7680927    0.0812660 
C     2.1131259   -3.2253125   -0.9109259 
C     2.9008819   -2.0820225   -1.1681938 
C     0.7976961   -3.3348540   -1.3668851 
C     0.7457987   -3.6337418    0.9546488 
C    -0.0057366   -3.9165415   -0.2705273 
C     0.1740086   -2.7502976    1.9445817 
C     2.3323077   -1.5173127    2.0511358 
C     0.9535821   -1.5790409    2.4070898 
C     3.7362566   -0.4476688    0.4804390 
C     2.9542698   -0.2470467    1.7135278 
C     3.6866618    0.5399979   -0.5162668 
C     2.3506230   -0.9949824   -1.9638521 
C     2.9264101    0.2785291   -1.7336644 
C     0.2145433   -2.2940668   -2.1974805 
C     0.9563504   -1.0678512   -2.4395111 
C    -1.2247332   -2.2813520   -2.2091958 
C    -1.3736278   -3.8111511   -0.2830714 
C    -1.9998253   -3.1404528   -1.3965268 
C    -1.2519182   -2.6646255    1.9051980 
C    -2.0174419   -3.3410469    0.9255900 
C    -1.9200258   -1.4005602    2.2217684 
C     0.2709873   -0.3068512    2.7076107 
C    -1.1902125   -0.2725237    2.6688979 
C     2.3126938    0.9783576    1.9634313 
C     0.9863328    0.9537248    2.5663376 
C     3.3659069    1.8453072   -0.1107409 
C     2.6777733    2.0973180    1.0991296 
C     2.2336517    1.5041341   -2.0885687 
C     2.6277712    2.5148528   -1.1768711 
C     0.2191253    0.1896594   -2.7141765 
C     0.8802053    1.4760229   -2.5630271 
C    -1.9280751   -1.0111126   -2.3450595 
C    -1.2388036    0.1768360   -2.6458543 
C    -3.0829100   -2.3175294   -0.8621310 
C    -3.0741677   -2.4289232    0.5275687 
C    -3.0461821   -1.2435358    1.3483006 
C    -3.0632743   -1.0174225   -1.4611463 
C    -3.3640387    0.0272695    0.7839270 
C    -3.3832159    0.1457807   -0.6931836 
C    -1.8820696    0.9682665    2.5151757 
C    -2.9273240    1.1438770    1.5313413 
C     0.2358190    2.1884165    2.5153123 
C    -1.1549460    2.1839710    2.5803397 
C     1.7483562    3.1933852    0.8507437 
C     1.7058400    3.4246088   -0.6076534 
C     0.5914298    3.2810072    1.5813895 
C     0.1037629    2.6740928   -2.2984098 
C     0.4886967    3.6144802   -1.2420612 
C    -1.9712288    1.3745579   -2.3239692 
C    -2.9787255    1.3665709   -1.2642647 
C    -1.3044065    2.6035363   -2.2554652 
C    -2.7609378    2.4705375    0.9311602 
C    -1.7184730    3.1428105    1.6265224 
C    -0.6445926    3.7961628    0.9708337 
C    -0.7029357    3.9277840   -0.4448436 
C    -2.8047222    2.5832584   -0.4789230 
C    -1.8207723    3.3804877   -1.1262795 
