60 

C     1.3835185    3.8016721    1.6778991 
C     1.9724702    3.6998485    0.3807537 
C     0.9491992    3.8773418   -0.6092009 
C    -0.0437230    3.9470378    1.5147326 
C    -0.3078719    4.1491625    0.1167775 
C    -0.6809435    2.8615167    2.1748352 
C     1.6464171    2.5825714    2.3528578 
C     0.3858531    1.9914711    2.7167018 
C     2.8353474    2.5357650    0.3621727 
C     2.6192513    1.8092563    1.6121846 
C     2.9100595    1.7787151   -0.7938988 
C     0.9253021    3.0108791   -1.7656857 
C     1.9580253    2.0179863   -1.8919005 
C    -0.3356395    2.6648206   -2.3419490 
C    -1.5107890    3.6612383   -0.3925048 
C    -1.5417856    3.1129031   -1.7187636 
C    -1.8529835    2.2504274    1.6372114 
C    -2.3617402    2.7933391    0.4148580 
C    -2.1252169    0.8455151    1.9703025 
C     0.2513586    0.6020461    2.7347178 
C    -1.0800259    0.0075818    2.5523132 
C     2.5542252    0.4093873    1.6420116 
C     1.4618103   -0.1957774    2.4226156 
C     3.1808818    0.3754489   -0.7174617 
C     3.0639189   -0.3555182    0.5021679 
C     1.7007539    0.7587794   -2.4956525 
C     2.6097005   -0.2125889   -1.9037273 
C    -0.6132151    1.3232277   -2.8340035 
C     0.3767902    0.3303361   -2.8832543 
C    -2.5441540    2.1005365   -1.8223329 
C    -3.0955128    1.9307906   -0.5119478 
C    -1.9785098    0.9641856   -2.4867524 
C    -3.1510173    0.1911475    1.2191967 
C    -3.4715285    0.6745442   -0.1225545 
C    -3.2054884   -1.2082995    1.1589752 
C    -1.1703209   -1.4379264    2.4892797 
C    -2.2601170   -2.0479315    1.7792708 
C     1.3453662   -1.5709503    2.3833657 
C     0.0392650   -2.2227366    2.5620612 
C     2.8671305   -1.7921777    0.4355256 
C     2.1835127   -2.4166451    1.5385198 
C     2.3351436   -1.5410206   -1.9700047 
C     2.7021449   -2.4148686   -0.8606461 
C    -0.0062546   -1.0852915   -2.7401787 
C     1.0628800   -2.0174440   -2.5373734 
C    -2.3184211   -0.3633381   -2.1063274 
C    -3.2883158   -0.4657672   -1.0367777 
C    -3.3013335   -1.6123541   -0.2404447 
C    -1.3456040   -1.4478941   -2.2884298 
C    -2.0074382   -3.1679251    0.8715179 
C    -2.4489404   -2.7228141   -0.4487460 
C    -1.5189070   -2.7108391   -1.5423206 
C     0.1300122   -3.4923061    1.9821645 
C     1.4667845   -3.6287410    1.3627235 
C    -0.8464712   -3.9216939    1.0078468 
C     1.9107500   -3.5788235   -1.0151636 
C     0.8473772   -3.2858619   -1.9914290 
C    -0.4176985   -3.6352807   -1.4173886 
C     1.3009209   -4.2026206    0.0883878 
C    -0.1462040   -4.3040433   -0.1771277 
