60 

C     0.3804167    4.3448193   -0.0464500 
C    -0.8973789    3.9788037   -0.5737233 
C    -1.6924268    3.3830004    0.4495592 
C     0.4727267    3.8231892    1.2771965 
C    -0.7833683    3.2127571    1.5979112 
C     1.6284519    2.9737133    1.3466739 
C     1.3825311    3.6866566   -0.8368762 
C     2.2567417    2.9706312    0.0245101 
C    -0.6875130    3.2289280   -1.7905071 
C     0.7598411    2.9655551   -1.9202382 
C    -1.5736071    2.2273675   -2.1213244 
C    -2.6339705    2.3569522    0.1154113 
C    -2.6559749    1.8486194   -1.2292847 
C    -2.9643117    1.4307250    1.1341166 
C    -0.8546780    2.0117879    2.3679521 
C    -2.1147081    1.3303057    2.3023845 
C     1.6126641    1.7584046    2.1025025 
C     0.3516653    1.2360583    2.6526703 
C     2.6589268    0.8635698    1.8015773 
C     2.9350805    1.8309715   -0.4503210 
C     3.4416772    0.9872311    0.5877234 
C     1.2379665    1.6867728   -2.3089163 
C     2.4891711    1.2073168   -1.7053547 
C    -1.1056553    1.0261593   -2.7784530 
C     0.2697348    0.6993252   -2.8334793 
C    -3.0138822    0.4830955   -1.5183135 
C    -2.1029641    0.0134369   -2.5487593 
C    -3.5033308    0.1025789    0.8420415 
C    -3.4724976   -0.4184543   -0.5062562 
C    -2.2135976    0.0043631    2.7585331 
C    -3.1497289   -0.7429261    1.9137073 
C     0.2442883   -0.1955435    2.9114595 
C    -1.0727357   -0.7763720    2.9870293 
C     2.5887565   -0.5615395    2.1462165 
C     1.3364694   -1.1090773    2.5861027 
C     3.9134930   -0.3043822    0.2759391 
C     3.4443270   -1.2728332    1.2875842 
C     2.8481802   -0.1515343   -1.9144130 
C     3.6956171   -0.8459461   -0.9836729 
C     0.6096671   -0.7340213   -2.8591071 
C     1.8928595   -1.1202194   -2.4086970 
C    -1.7998500   -1.3422432   -2.6782716 
C    -0.4168179   -1.7260457   -2.8055711 
C    -3.1845196   -1.8255244   -0.6723404 
C    -2.4672214   -2.2751235   -1.8308033 
C    -2.6321580   -2.0463025    1.7152526 
C    -1.3662941   -2.1200384    2.4587375 
C    -2.7289309   -2.6402447    0.4490462 
C     1.0368214   -2.4333324    2.1175545 
C    -0.3341432   -2.8863352    1.9775441 
C     2.9912786   -2.4427277    0.6040484 
C     3.1656616   -2.2065104   -0.8024056 
C     2.0842756   -2.3784724   -1.6777012 
C     1.7816988   -3.0243642    1.0364008 
C    -0.2518615   -2.9618036   -2.0304634 
C    -1.5152976   -3.2738470   -1.4501815 
C    -1.6364009   -3.4836017   -0.0338342 
C    -0.4643642   -3.6135434    0.7145808 
C     0.9461619   -3.1901305   -1.3041175 
C     0.8330378   -3.5700554    0.0778702 
