60 

C    -1.3190128   -3.9006846   -0.5551635 
C    -0.6233788   -4.0666504    0.6451878 
C     0.7874983   -3.9577641    0.3554692 
C    -0.3199201   -3.5494821   -1.6019346 
C     0.9783875   -3.5695670   -1.0368601 
C    -0.7852927   -2.4204433   -2.2834039 
C    -2.4194066   -3.0198603   -0.6601419 
C    -2.1734854   -2.1807102   -1.8356307 
C    -2.8994338   -2.3837294    0.5118741 
C    -0.9101140   -3.1894186    1.7673351 
C    -2.0559179   -2.4069002    1.7158467 
C     1.3813971   -3.1838876    1.3773371 
C     0.3343025   -2.5730675    2.1929863 
C     2.5091010   -2.4637543    1.0603382 
C     1.9062049   -2.5404092   -1.3607918 
C     2.8908905   -2.2852013   -0.3427084 
C     0.0915002   -1.3145440   -2.5898850 
C     1.4916227   -1.4019903   -2.1983442 
C    -0.5419519   -0.0084275   -2.7872103 
C    -2.7060717   -0.9218410   -1.8990086 
C    -1.9285398    0.1769578   -2.4581047 
C    -3.4832505   -1.0808084    0.4186600 
C    -3.5140541   -0.3919813   -0.8152860 
C    -2.0248362   -1.0699287    2.2570167 
C    -3.0804164   -0.3290752    1.5986996 
C     0.4362283   -1.1890841    2.5359647 
C    -0.8046266   -0.4136781    2.6179398 
C     2.8120705   -1.2369557    1.7606465 
C     1.7275476   -0.4983356    2.3470385 
C     3.7024379   -1.1526846   -0.3905123 
C     3.7992715   -0.5835607    0.9580621 
C     2.3043892   -0.1687568   -2.1721541 
C     3.4825665   -0.0956815   -1.3313324 
C     0.2568828    1.1580720   -2.7445688 
C     1.6686590    1.0755416   -2.4648372 
C    -0.2507080    2.4270985   -2.2825105 
C    -2.4179603    1.3971954   -1.9015371 
C    -3.3772659    1.0316955   -0.8497068 
C    -1.5829265    2.5584176   -1.7825171 
C    -3.0575983    1.0388024    1.5898523 
C    -3.3696314    1.7652902    0.3519624 
C    -0.7660670    1.0543287    2.5913500 
C    -1.9805700    1.7507279    2.2613531 
C     1.7503350    0.9747911    2.2263317 
C     0.5152933    1.7390767    2.3671385 
C     3.7892344    0.7819462    0.8155032 
C     3.7741757    1.1239563   -0.6298386 
C     2.8305371    1.5848376    1.4850732 
C     2.0442861    2.3224364   -1.8185280 
C     0.8672396    3.1215332   -1.6669275 
C     3.0026615    2.2720138   -0.7800544 
C     2.5538289    2.6824766    0.5681285 
C     0.4841178    3.0701469    1.7834011 
C     0.6362786    3.8305656   -0.4586296 
C     1.4208099    3.4142167    0.7191298 
C    -1.8066366    3.4457549   -0.6584048 
C    -2.6697545    2.9843928    0.4028602 
C    -1.9452675    3.0520948    1.6723012 
C    -0.6773892    4.0400785   -0.0205171 
C    -0.7382710    3.6744180    1.4222623 
