60 

C    -0.6293195   -4.5496899   -1.1314890 
C     0.7795156   -4.4094821   -1.2116275 
C     1.2443611   -4.3531286    0.1474825 
C    -1.0683828   -4.5095260    0.2676260 
C     0.0944831   -4.4326966    1.0689568 
C    -2.0659339   -3.4924879    0.3828545 
C    -1.2534756   -3.4696991   -1.8268092 
C    -2.2013691   -2.8477799   -0.9585678 
C     1.0374763   -3.2646735   -2.0755514 
C    -0.2489984   -2.6567657   -2.4584355 
C     2.0486827   -2.3873234   -1.7329334 
C     2.0885348   -3.3048638    0.5887886 
C     2.6483424   -2.4467600   -0.3840406 
C     0.2451504   -3.3869993    2.0351533 
C     1.5080519   -2.6987235    1.8022745 
C    -2.0430132   -2.6507670    1.5053586 
C    -0.8606571   -2.5824697    2.3548227 
C    -2.5734904   -1.3267102    1.4035320 
C    -2.4351209   -1.4732446   -1.0730345 
C    -2.9308647   -0.7967759    0.1238452 
C    -0.4154099   -1.2468678   -2.5295348 
C    -1.6468774   -0.6659223   -2.0134456 
C     1.9719890   -0.9941058   -2.0902913 
C     0.7631640   -0.3787796   -2.5223022 
C     2.9965944   -1.1338841   -0.0216743 
C     2.7938131   -0.2613854   -1.1711053 
C     1.6729669   -1.3259289    2.0817091 
C     2.6431360   -0.6017811    1.2652249 
C    -0.6880454   -1.1955720    2.7105745 
C    -1.8513712   -0.4517429    2.2886255 
C     0.5569639   -0.5313477    2.6446726 
C    -1.8608280    0.9560795    2.1356418 
C    -3.1233278    0.5665779    0.0559257 
C    -2.8147437    1.4452112    1.1826228 
C    -1.8022112    0.7608498   -2.0315267 
C    -2.8126015    1.3057800   -1.1501381 
C     0.6405153    1.0657484   -2.4109041 
C    -0.6992325    1.6490915   -2.4162470 
C     2.7293159    1.1181465   -1.0547300 
C     1.7601053    1.8442106   -1.8725431 
C     2.7246955    0.7797543    1.3945357 
C     3.0501611    1.6283533    0.2654559 
C     0.5636892    0.9335975    2.5971391 
C    -0.6575208    1.7315665    2.3829198 
C     1.7983792    1.5438613    2.2359503 
C    -0.5859351    3.1251907    1.8753933 
C    -2.7213965    2.7477494    0.6921185 
C    -2.8171605    2.6676593   -0.7976603 
C    -1.6663349    3.6155427    1.0270012 
C    -0.8227764    3.0632928   -2.1680493 
C    -1.9209462    3.5615211   -1.3378129 
C    -1.3459080    4.3227081   -0.2340440 
C     1.5771050    3.2342088   -1.5795696 
C     0.3172765    3.8238682   -1.8009587 
C    -0.0345118    4.6093521   -0.5726853 
C     2.6989611    2.9407362    0.6034848 
C     1.8565138    2.8872821    1.8292349 
C     0.7161849    3.6928140    1.6230234 
C     2.0924333    3.7824092   -0.3112338 
C     0.9792027    4.4247210    0.3669967 
