60 

C     0.4922573   -4.3829063   -0.1054875 
C     1.4180379   -3.8809596    0.7986259 
C     2.3957526   -3.0640847    0.0738385 
C     0.9063304   -3.8615997   -1.4489691 
C     2.0152603   -2.9443758   -1.2908663 
C    -0.2287121   -3.4384550   -2.0855244 
C    -0.9125839   -4.1251849    0.0645496 
C    -1.4018993   -3.6665833   -1.2152121 
C    -1.3321046   -3.4147098    1.2292029 
C     1.0183413   -3.1060396    1.9479519 
C    -0.3440585   -2.9198896    2.1806758 
C     2.7390781   -1.9368322    0.8587214 
C     1.9075538   -1.9463399    2.0410154 
C     3.0933986   -0.7274953    0.2146615 
C     1.9841780   -1.6270914   -1.8739057 
C     2.7687265   -0.5880825   -1.2057466 
C    -0.3163806   -2.1114235   -2.6402961 
C     0.7960697   -1.2126507   -2.6202788 
C    -2.2117242   -2.5416102   -1.3301415 
C    -1.6074469   -1.6112897   -2.3222653 
C    -2.3356276   -2.3892381    1.1261030 
C    -2.8224108   -1.9594576   -0.1572831 
C    -0.8047048   -1.6303324    2.6947316 
C    -2.0863901   -1.3611090    2.1316480 
C     1.4960439   -0.7165626    2.6120159 
C     0.0920081   -0.5611680    2.9949069 
C     3.0501388    0.4341144    1.0321281 
C     2.2317231    0.4371583    2.2060125 
C     3.0631464    1.7684874    0.4730351 
C     2.6828487    0.7159948   -1.7098327 
C     3.0196229    1.9025230   -0.9245574 
C     0.4989332    0.1985347   -2.7978172 
C     1.5955279    1.0953294   -2.6068158 
C    -1.9016940   -0.2322925   -2.3223928 
C    -0.8505808    0.7247768   -2.6742539 
C    -3.2867380   -0.6410046   -0.2888760 
C    -2.9887403    0.1681943   -1.4851593 
C    -2.5799607   -0.0305994    2.0017288 
C    -3.3629532    0.2724390    0.8369179 
C    -0.4507794    0.7577621    3.0074054 
C    -1.7833171    1.0278655    2.5504500 
C     1.6985446    1.7855238    2.3485884 
C     2.2622277    2.6383569    1.3246725 
C     0.3708294    1.9289606    2.7395236 
C     1.4746084    3.6614177    0.7521370 
C     2.3099207    3.0108363   -1.4846037 
C     1.3949511    2.4785510   -2.4852320 
C     1.5621401    3.8723535   -0.6718396 
C    -1.0437870    2.1435542   -2.3339478 
C     0.0831660    3.0248152   -2.2776245 
C     0.2112817    3.9868799   -1.2130242 
C    -3.1137023    1.5104373   -1.1200573 
C    -3.3573728    1.5819126    0.3106437 
C    -2.1487835    2.4900200   -1.4702830 
C    -1.7882447    2.3707257    1.9783452 
C    -0.4618846    2.9382247    2.1080057 
C     0.0717625    3.7692977    1.1171656 
C    -0.6981642    3.9687721   -0.1288644 
C    -2.5551666    2.6377853    0.8295698 
C    -1.9284974    3.3277634   -0.2938199 
