60 

C     0.9198137   -4.1457392    0.0221374 
C     0.9986168   -3.8152321   -1.3362135 
C    -0.3593114   -3.6011406   -1.8547498 
C    -0.5024812   -4.1026087    0.4026798 
C    -1.2748547   -3.7920847   -0.7644620 
C    -0.6171508   -3.3196115    1.5773311 
C     1.6832319   -3.4295074    0.9957876 
C     0.7369123   -2.9942119    2.0204727 
C     2.6592152   -2.5085388    0.5620387 
C     1.8377541   -2.7401719   -1.7648018 
C     2.7373718   -2.1653265   -0.8417477 
C    -0.3615797   -2.3756193   -2.5593053 
C     1.0121422   -1.8611128   -2.5729469 
C    -1.4617705   -1.4498244   -2.4646172 
C    -2.3440379   -2.9073974   -0.6261637 
C    -2.5464974   -1.8455260   -1.6076516 
C    -1.6885163   -2.3495033    1.7262487 
C    -2.6465640   -2.3199605    0.6666133 
C    -1.4563026   -1.1190446    2.5114523 
C     0.9435242   -1.8209369    2.7143866 
C    -0.1581055   -0.9436114    3.0568423 
C     2.8818576   -1.2766666    1.3072884 
C     2.0892962   -0.9714418    2.4173721 
C     3.0150209   -0.7590001   -0.9423010 
C     3.1863169   -0.2041965    0.3937400 
C     1.2631523   -0.4868290   -2.6878728 
C     2.4098151    0.0391928   -1.9356902 
C    -1.2157122   -0.0330667   -2.7001645 
C     0.1388506    0.4077312   -2.9865501 
C    -2.1363676    0.9573424   -2.1089568 
C    -3.3541170   -0.8473869   -0.9957648 
C    -3.3669951   -1.1079861    0.4122871 
C    -3.1025545    0.5261793   -1.1750717 
C    -2.2327393    0.1151315    2.2301654 
C    -3.1400733    0.0978851    1.1152445 
C    -3.1353987    1.1720295    0.1517349 
C    -1.7100850    1.3833799    2.5726474 
C     0.4004863    0.3751992    3.2644354 
C     1.7476705    0.3925877    2.7375572 
C    -0.3946084    1.5067463    3.1523562 
C     2.9058260    1.1593659    0.7025482 
C     2.2113659    1.4945406    1.9515278 
C     2.4978859    1.4460197   -1.7225685 
C     2.7494935    2.0292003   -0.4099648 
C     0.4169776    1.8104096   -2.9927581 
C     1.6377401    2.2899747   -2.4320000 
C    -1.7254533    2.3305342   -1.9622374 
C    -0.5741456    2.7733509   -2.5910751 
C    -2.4941214    2.4027501    0.4126522 
C    -1.9038775    2.5679208    1.7170923 
C    -1.9070566    3.0838486   -0.6936495 
C     0.1982243    2.7139557    2.6791156 
C     1.4362503    2.7071809    2.0019089 
C    -0.7716532    3.4048275    1.8525912 
C     2.0165144    3.2840562   -0.3255614 
C     1.3830265    3.4930720   -1.6056109 
C     0.0444830    3.7933774   -1.7082660 
C    -0.7643359    3.9426458   -0.5256988 
C     1.2958543    3.5940847    0.8316805 
C    -0.1082239    3.9987631    0.7344861 
