60 

C    -0.2513970   -4.5700822    0.2465153 
C    -0.9538092   -4.2155701   -0.9238703 
C    -2.0857265   -3.4014756   -0.5056752 
C    -0.8601927   -3.8467363    1.3905641 
C    -1.9736153   -3.1206155    0.9145440 
C     0.1973021   -3.1378928    2.0534832 
C     1.1471407   -4.4037453    0.3092588 
C     1.4370845   -3.5525510    1.4855661 
C     1.8279906   -3.8386942   -0.7900211 
C    -0.2907873   -3.4878828   -1.9816791 
C     1.1062652   -3.2858731   -1.9188397 
C    -2.2593907   -2.3261971   -1.3868641 
C    -1.1182793   -2.3297813   -2.2989665 
C    -2.8327215   -1.1111305   -0.9185334 
C    -2.2631065   -1.8085412    1.4000878 
C    -2.9823908   -0.8969773    0.5209348 
C     0.0057578   -1.7706282    2.4763138 
C    -1.3439453   -1.2263522    2.3813690 
C     1.1152379   -0.8408700    2.4183282 
C     2.3734691   -2.5583446    1.1161124 
C     2.6781193   -2.7783570   -0.2778098 
C     2.2596870   -1.2221779    1.5931355 
C     1.6463726   -1.9423317   -2.1769328 
C     2.6557687   -1.6846053   -1.1624299 
C    -0.5795362   -1.0869696   -2.7073801 
C     0.8634071   -0.8533314   -2.6110465 
C    -2.6020827    0.0179440   -1.7328163 
C    -1.4388682    0.0423202   -2.5824762 
C    -2.8199363    1.3628893   -1.2687224 
C    -3.1900901    0.4377582    0.9633398 
C    -3.1632552    1.5858113    0.0573085 
C    -1.5423409    0.1228408    2.7434071 
C    -2.6041621    0.8644957    2.1780941 
C     0.8811691    0.5860620    2.6771734 
C    -0.4365483    1.0409610    2.9263040 
C     1.8030008    1.5611590    2.2099411 
C     2.8510257   -0.1921146    0.7752700 
C     2.8755423   -0.3881143   -0.6745782 
C     2.8119739    1.1391657    1.2391518 
C     1.3629707    0.5164039   -2.4123342 
C     2.4984288    0.7175175   -1.5302620 
C    -0.9364819    1.3850828   -2.6482310 
C    -1.8585241    2.2325399   -1.9274567 
C     0.4736095    1.6515140   -2.6374748 
C    -1.4267649    3.4152509   -1.3100767 
C    -2.5632670    2.7315853    0.7728348 
C    -2.1887647    2.2499870    2.0565940 
C    -0.8558747    2.3820176    2.5237853 
C    -1.7096355    3.6193921    0.1210573 
C     1.4371335    2.9282789    1.8995633 
C     0.0436182    3.3099567    1.8936649 
C    -0.4618395    4.0449415    0.7459938 
C     3.0680266    2.1989430    0.3699858 
C     2.8096053    2.0247484   -1.0452475 
C     2.3049074    3.3537170    0.8310985 
C     0.8635184    2.9689663   -2.1870485 
C    -0.1163773    3.8526379   -1.5691727 
C     0.4404550    4.3705599   -0.3338909 
C     2.0769589    3.1514583   -1.4790375 
C     1.7941654    4.0110367   -0.2919066 
