60 

C    -0.9147447   -4.5319100   -0.7587572 
C     0.2475048   -4.1313281   -1.5281699 
C     1.3749376   -4.0280801   -0.6663526 
C    -0.5409393   -4.3671383    0.6322467 
C     0.8574182   -4.1575083    0.7203270 
C    -1.3799421   -3.3922219    1.2596988 
C    -1.9233931   -3.5751794   -1.0121123 
C    -2.3031189   -2.9302146    0.2229224 
C    -0.0685940   -2.9808834   -2.3122171 
C    -1.4715691   -2.6454917   -2.0132387 
C     0.8723177   -1.9137000   -2.4637531 
C     2.2467448   -2.9235365   -0.7028196 
C     2.0853967   -1.8437557   -1.6549078 
C     1.4256721   -3.1314895    1.5107397 
C     2.4793631   -2.5496399    0.6894088 
C    -0.8326529   -2.4261215    2.1762877 
C     0.6173767   -2.2340439    2.3003832 
C    -1.6437617   -1.3080552    2.4232622 
C    -2.8224305   -1.6135460    0.2421728 
C    -2.7572747   -0.9937465    1.5223494 
C    -1.9320672   -1.3010205   -2.0287389 
C    -2.7516242   -0.7566980   -0.9397512 
C     0.3183856   -0.6826980   -2.8825974 
C    -1.1003077   -0.3964933   -2.7243342 
C     1.0058219    0.5566501   -2.7787567 
C     2.6639767   -0.5363140   -1.3402190 
C     2.1562825    0.7006899   -1.9586592 
C     2.9875469   -1.3361714    0.9953433 
C     3.3010247   -0.3872487   -0.0638013 
C     1.1411769   -0.9006668    2.6205052 
C     2.4429669   -0.5821730    2.1201439 
C    -1.1376163   -0.0531414    2.9300363 
C     0.2553818    0.2386278    2.9124698 
C    -3.0298731    0.3642694    1.6352914 
C    -2.0817215    0.9572335    2.5856336 
C    -2.8802904    0.6841020   -0.8001272 
C    -3.1263299    1.2126797    0.5176353 
C    -1.2864370    1.0115207   -2.6622628 
C     0.0092774    1.6166394   -2.8821481 
C    -2.2176229    1.5935213   -1.7478388 
C     0.2699451    2.8972897   -2.4603352 
C     2.3544945    2.0268615   -1.3331534 
C     1.4782119    3.1216478   -1.6549228 
C     3.3734479    0.8717975    0.5641071 
C     2.8188345    0.7513410    1.9139680 
C     2.9075228    2.0630046   -0.0110008 
C     0.6444615    1.6384070    2.6225709 
C     1.9680067    1.8550722    2.1367987 
C     2.2188145    2.8030567    1.0570952 
C    -1.7362915    2.2285714    2.1580723 
C    -2.5331766    2.4828956    0.9355478 
C    -0.3613451    2.6571200    2.2374420 
C    -1.9657696    2.9656820   -1.3927502 
C    -0.8214467    3.6472595   -1.8901513 
C    -2.0977583    3.4001717    0.0236315 
C     1.1236040    4.0911707   -0.6609466 
C     1.3002624    3.7711496    0.7368887 
C    -0.0141479    3.7393495    1.3762317 
C    -0.2532317    4.4452588   -0.8288578 
C    -0.9607002    4.2171755    0.3744699 
