60 

C    -1.8844609   -3.8617855    0.0624500 
C    -0.6481505   -3.9486424    0.7358588 
C    -0.6432343   -3.0330921    1.8642199 
C    -2.6682527   -2.8503987    0.6914746 
C    -1.9152501   -2.3257568    1.8167241 
C    -3.0574550   -1.8994974   -0.2938804 
C    -1.5905688   -3.3940010   -1.2849009 
C    -2.3657173   -2.2354759   -1.5430256 
C     0.4154006   -3.8294232   -0.2417608 
C    -0.1823289   -3.3423165   -1.5079137 
C     1.6122912   -3.3353220    0.1837312 
C     0.5501555   -2.3651939    2.2415598 
C     1.7446059   -2.7524441    1.5244735 
C     0.4666889   -1.0166125    2.7970497 
C    -1.9984132   -0.9708324    2.1999451 
C    -0.8527138   -0.3890560    2.9129405 
C    -3.2688849   -0.5441338    0.0759374 
C    -2.8836796   -0.0959382    1.4146455 
C    -3.2555715    0.3795272   -0.9984447 
C    -1.8520869   -1.2024147   -2.3623773 
C    -2.5576675    0.0397542   -2.2321176 
C     0.4207744   -2.2596214   -2.2168306 
C    -0.4442680   -1.1962003   -2.7508858 
C     2.4378088   -2.5514069   -0.7338750 
C     1.8341560   -1.9568877   -1.9141780 
C     2.8318795   -1.8746176    1.4399930 
C     3.3357751   -1.8208209    0.0628277 
C     1.6390268   -0.1418925    2.7033798 
C     2.7747849   -0.5555097    1.9358207 
C     1.4746838    1.2730546    2.8003543 
C    -0.9217117    1.0040001    3.2132976 
C     0.2608195    1.8101075    3.2293025 
C    -2.8044778    1.3055216    1.6346756 
C    -1.9535761    1.8159596    2.6285342 
C    -3.0754992    1.8064594   -0.7667199 
C    -2.8155162    2.2605379    0.5176651 
C    -1.9981963    1.2269767   -2.7373392 
C    -2.3070922    2.3364507   -1.8327682 
C     0.1523365    0.0795765   -3.1481596 
C    -0.6488943    1.2871096   -3.1178516 
C     2.3858217   -0.7229276   -2.3284619 
C     1.5557193    0.2763291   -2.9968846 
C     3.6760795   -0.4797355   -0.2287594 
C     3.3830789    0.3356630    0.9426370 
C     3.3486218    0.0013473   -1.5070175 
C     2.0324208    2.1702785    1.7783892 
C     2.9129988    1.6792174    0.7924029 
C     0.0070185    3.0371893    2.4652271 
C    -1.3317521    3.0374981    2.1068432 
C    -1.7428281    3.2229990    0.7439991 
C     1.0281024    3.1698620    1.4777591 
C    -1.1253176    3.0708048   -1.6072892 
C    -0.1302325    2.5373224   -2.5314780 
C    -0.7645076    3.4900901   -0.2725276 
C     0.6758412    3.4524044    0.1023483 
C     2.0660677    1.5690479   -2.6621481 
C     3.0635437    1.3876355   -1.6541466 
C     2.7747832    2.2288722   -0.5324862 
C     1.2031105    2.6177493   -2.2190465 
C     1.6239102    3.0426113   -0.8731920 
