60 

C     2.9528921   -2.4912670    1.6906688 
C     1.6325512   -2.6881421    2.3025975 
C     0.7757050   -3.3994559    1.4192770 
C     2.8371482   -2.8636719    0.3558864 
C     1.5650263   -3.5679431    0.1857024 
C     3.1525926   -1.7102462   -0.4962825 
C     3.2583444   -1.0887412    1.7404314 
C     3.4521735   -0.6086490    0.3931562 
C     1.2157166   -1.4442890    2.8478389 
C     2.2361253   -0.4501808    2.4872959 
C    -0.1502916   -1.0921302    2.8561483 
C    -0.6102839   -3.0742208    1.3554252 
C    -1.1051441   -2.0393607    2.2709162 
C    -1.3046386   -3.2796087    0.0707365 
C     0.9503188   -3.4698157   -1.0267030 
C    -0.5117786   -3.4890025   -1.1041671 
C     2.4145861   -1.4861999   -1.6788038 
C     1.4641918   -2.5220199   -2.0465633 
C     2.1800708   -0.1040541   -2.1216654 
C     3.1122011    0.7146053    0.0560799 
C     2.6992941    0.9979386   -1.3125775 
C     1.8882881    0.8973075    2.2155650 
C     2.5736187    1.5671942    1.1241587 
C    -0.4536664    0.3427725    2.9296381 
C     0.5703856    1.3340743    2.6442390 
C    -1.8194505    0.7333245    2.7321731 
C    -2.4452944   -1.5782638    2.0946335 
C    -2.7841096   -0.2202342    2.4110408 
C    -2.5515282   -2.5990434   -0.1420467 
C    -3.1681123   -1.9133243    0.9159746 
C    -2.7884835   -1.7900642   -1.3451968 
C    -0.8532305   -2.8372884   -2.3126223 
C     0.3562265   -2.1922695   -2.8162289 
C    -1.8843161   -1.8687197   -2.3867088 
C     1.0153567    0.1765115   -2.9486412 
C     0.0558136   -0.8447320   -3.1831479 
C    -1.3403539   -0.6177716   -2.9235262 
C     0.4617926    1.4895633   -2.9894488 
C     2.2823055    2.3424280   -1.6085544 
C     1.2029005    2.5785166   -2.5084110 
C     2.1594584    2.8839122    0.7853698 
C     2.1535207    3.3174804   -0.5613154 
C     0.1628145    2.6530839    2.2291942 
C     0.9927066    3.4342418    1.4239531 
C    -2.1462741    1.9511499    1.9672269 
C    -1.1972336    2.8903492    1.7492709 
C    -3.6076205    0.3334707    1.3087561 
C    -3.7995999   -0.6848308    0.3916817 
C    -3.3805886   -0.5109696   -0.9525703 
C    -3.0908935    1.5883934    0.9193095 
C    -1.8148218    0.6561957   -2.4644960 
C    -0.9313624    1.7305207   -2.6714343 
C    -2.8169360    0.7355391   -1.3936631 
C    -2.7171280    1.8559691   -0.4452423 
C     0.2957047    3.5773334   -1.9493545 
C     0.9121252    4.0917693   -0.7941164 
C     0.1825187    4.1308216    0.3969387 
C    -1.1336642    3.5973016    0.4732834 
C    -0.9956542    2.9677256   -1.8865459 
C    -1.7620157    2.9570165   -0.6745338 
