60 

C    -1.4165193   -4.2178457   -0.7905834 
C    -0.1207035   -4.4104119   -0.3496330 
C    -0.0621820   -3.9453047    1.0671249 
C    -2.1835525   -3.5800811    0.2765353 
C    -1.3348035   -3.3358953    1.4067085 
C    -2.9100116   -2.5055374   -0.2835559 
C    -1.3891381   -3.2439810   -1.8842671 
C    -2.3200797   -2.2199786   -1.6138068 
C     0.7824398   -3.7522866   -1.2943558 
C    -0.0299645   -2.8927035   -2.1601822 
C     1.9745338   -3.2693296   -0.8127493 
C     1.0975902   -3.3650352    1.5226748 
C     2.2363194   -3.3139129    0.6401138 
C     1.0725964   -2.0812768    2.2651166 
C    -1.3778535   -2.0533563    2.0817716 
C    -0.1245913   -1.3616884    2.4718664 
C    -3.2093419   -1.4419331    0.5445731 
C    -2.4824811   -1.2310806    1.7759377 
C    -3.4500661   -0.1597304   -0.0381415 
C    -2.0397846   -0.8689632   -1.9571877 
C    -2.8807162    0.1363483   -1.3157537 
C     0.3369635   -1.5259629   -2.4034523 
C    -0.7067653   -0.5054661   -2.4257548 
C     2.5092544   -2.0268153   -1.3231193 
C     1.7122831   -1.1158310   -2.0882795 
C     2.9779281   -2.1746118    0.9602023 
C     2.2936674   -1.3908467    1.9817293 
C     3.3439256   -1.4976771   -0.2577554 
C     2.3808278    0.0193749    1.9844542 
C    -0.0512457    0.1147999    2.5567926 
C     1.2162087    0.8107065    2.3386412 
C    -2.4692106    0.1928455    2.0106104 
C    -3.3159980    0.8179225    1.0165551 
C    -1.2952276    0.8745348    2.4528157 
C    -3.1911697    2.1648559    0.7028325 
C    -2.6083048    1.5028167   -1.5910984 
C    -3.0105825    2.5232642   -0.6888272 
C    -0.3392601    0.9143091   -2.4775877 
C    -1.3508744    1.8827379   -2.2232219 
C     2.0806392    0.3034945   -2.0885380 
C     1.0714954    1.3295736   -2.3752339 
C     3.5962218   -0.1717614   -0.1905372 
C     3.3577464    0.5807519    1.0573025 
C     3.2177193    0.6897509   -1.2993271 
C     3.3085795    1.9097990    0.6955975 
C     3.3494785    2.0003035   -0.7984437 
C     1.2227425    2.2559264    1.9890962 
C     2.3007510    2.7998589    1.1666778 
C    -1.2620039    2.2944855    2.2062854 
C    -2.2894299    2.9497952    1.4743725 
C     0.0045874    2.9607630    1.9233015 
C    -2.0332216    3.5818480   -0.7495725 
C    -1.0398266    3.2198013   -1.7377390 
C    -1.6311708    3.8975083    0.5695768 
C    -0.2556714    3.9608918    0.8836306 
C     1.3426497    2.6923587   -1.9887436 
C     2.4789999    2.9887991   -1.1688040 
C     1.9705060    3.6467529    0.0570437 
C     0.2776870    3.5670447   -1.5180147 
C     0.6674106    4.0752812   -0.1856741 
