60 

C     2.5455982    3.3421027    0.9373685 
C     2.9610798    2.8129303   -0.3544653 
C     1.9133143    3.0398258   -1.2844844 
C     1.2935820    3.9436781    0.8537704 
C     0.9303661    3.8677979   -0.5625223 
C     0.4228857    3.2265868    1.7806267 
C     2.5379417    2.2370289    1.8736608 
C     1.2160484    2.1237204    2.3784945 
C     3.4681309    1.4984007   -0.1310738 
C     3.1576466    1.1127336    1.2666796 
C     3.2476688    0.5568452   -1.1194147 
C     1.4485401    1.9483175   -2.1275208 
C     2.2487525    0.7807226   -2.1421083 
C     0.0262392    1.7786188   -2.4201311 
C    -0.3832463    3.7283222   -0.8704914 
C    -0.8383358    2.8353779   -1.9508712 
C    -0.9331387    3.0513603    1.4856393 
C    -1.3788793    3.6241052    0.2055014 
C    -1.6276554    1.8578229    1.9982315 
C     0.6393648    0.8470655    2.5804826 
C    -0.8176858    0.7563602    2.5554559 
C     2.6842207   -0.1883491    1.5414011 
C     1.4623645   -0.3464055    2.3163353 
C     3.2466413   -0.8371740   -0.7757288 
C     3.0472157   -1.2415394    0.5810595 
C     1.7021757   -0.5132625   -2.4620977 
C     2.5177914   -1.5305765   -1.8118606 
C    -0.5609560    0.4513438   -2.6198192 
C     0.3129465   -0.7302964   -2.6471965 
C    -1.9828259    0.2467164   -2.3303818 
C    -2.1979017    2.6232403   -1.7407853 
C    -2.5487374    3.1636658   -0.3869445 
C    -2.7902105    1.3461930   -1.8812808 
C    -2.9092082    1.5461278    1.4496684 
C    -3.3459727    2.2146363    0.2406360 
C    -3.6525985    1.1785902   -0.7260866 
C    -3.3376484    0.1666768    1.3303070 
C    -3.7517876   -0.0554149   -0.0594820 
C    -1.3717156   -0.5435051    2.5955917 
C    -2.6299361   -0.8376128    1.9591656 
C     0.8536489   -1.6687084    2.3800597 
C    -0.5619127   -1.7427260    2.5569934 
C     2.5721855   -2.5528850    0.7874321 
C     1.5027452   -2.7969164    1.7714312 
C     2.0622753   -2.8123197   -1.5974255 
C     2.3668903   -3.4320126   -0.3227481 
C    -0.1929270   -2.0912298   -2.3629460 
C     0.6873008   -3.1393109   -1.9458851 
C    -2.4026016   -1.0493504   -1.8822409 
C    -3.2893852   -1.1900975   -0.7254364 
C    -1.5584717   -2.1941558   -1.9190421 
C    -2.5212481   -2.1662348    1.3701905 
C    -1.3257606   -2.7892771    1.9012830 
C    -2.8474964   -2.3387670    0.0168891 
C    -1.9256001   -3.0799058   -0.8218592 
C     0.7417144   -3.9082358    1.2986531 
C     1.2814272   -4.2906070    0.0024144 
C     0.2519974   -4.1171734   -0.9601596 
C    -0.6782691   -3.7957380    1.1844318 
C    -0.9885876   -3.9271266   -0.2573641 
