60 

C    -2.3591129   -4.0394775    0.1740110 
C    -1.3272881   -4.5866996   -0.5743406 
C    -0.1193151   -4.5020845    0.2165525 
C    -1.7774729   -3.5256911    1.4489882 
C    -0.3800666   -3.8397621    1.4915282 
C    -2.1748726   -2.1935051    1.6354925 
C    -2.8763789   -2.8933840   -0.5172019 
C    -2.9540281   -1.8299718    0.4159926 
C    -1.1048206   -3.7062383   -1.7405956 
C    -2.0864983   -2.6467796   -1.7148713 
C     0.9155571   -3.9871365   -0.6188151 
C     0.2572683   -3.3455736   -1.7971603 
C     1.9682880   -3.3597942   -0.0160232 
C     0.5543015   -2.8715073    1.9836213 
C     1.8628604   -2.9455777    1.3922679 
C    -1.2967709   -1.1999908    2.1907424 
C     0.1006784   -1.5383797    2.4232494 
C    -1.7100659    0.1753616    2.0430077 
C    -2.8750600   -0.5310391   -0.0300526 
C    -2.6710003    0.4649721    1.0009249 
C    -1.7005274   -1.3197665   -2.0430402 
C    -2.3914847   -0.2336927   -1.3669384 
C     0.6872604   -2.0378094   -2.1928979 
C    -0.3308325   -1.0167960   -2.4421435 
C     2.7098318   -2.3378301   -0.7363297 
C     2.0390453   -1.6268486   -1.8091469 
C     2.7470244   -1.8811215    1.5273423 
C     3.4056461   -1.5935268    0.2313935 
C     1.0403336   -0.4184470    2.5177696 
C     2.4022233   -0.6465445    2.1165326 
C    -0.8523862    1.2763127    2.4316358 
C     0.5695184    0.9717229    2.5301216 
C    -1.2770757    2.6143353    2.1513740 
C    -2.9350514    1.7566481    0.5946327 
C    -2.4632889    2.8576266    1.3626846 
C    -2.1280893    1.1301736   -1.6849098 
C    -2.7579145    2.1074545   -0.8320091 
C     0.0575953    0.3767511   -2.5935476 
C    -0.9120245    1.4671692   -2.4058560 
C     2.3984117   -0.2707092   -1.9849310 
C     1.4388485    0.6941779   -2.4833158 
C     3.6236513   -0.2108743    0.1369861 
C     3.1396411    0.3826122    1.3882254 
C     3.2724093    0.4324837   -1.0660125 
C     1.4640735    2.0086474    2.1039597 
C     2.6733949    1.6697629    1.3861070 
C    -0.3330767    3.6407727    1.7173141 
C     0.9964334    3.2712891    1.5792969 
C    -2.2984313    3.9900405    0.5059167 
C    -2.3965235    3.4709543   -0.8713477 
C    -0.9652315    4.4436668    0.6662980 
C    -0.4496835    2.8192578   -2.2884805 
C    -1.2065964    3.8036376   -1.5739893 
C    -0.3230219    4.4656822   -0.6199217 
C     1.8547613    2.0099106   -2.0540298 
C     2.8796890    1.8180019   -1.0428812 
C     2.7144563    2.4919671    0.1812950 
C     1.7235145    3.5205555    0.3175367 
C     0.9477247    3.0449925   -1.9548886 
C     0.9895493    3.9596189   -0.8071228 
