60 

C     1.3630263    3.9082496    0.7712400 
C     1.7245041    3.7829539   -0.5757991 
C     2.7793505    2.7928225   -0.6789228 
C     2.1184099    2.8977830    1.5187738 
C     3.0103031    2.2166511    0.6238827 
C     1.1850995    2.1595819    2.2712514 
C    -0.0057005    3.8528913    1.1563148 
C    -0.1468327    2.7607141    2.1104116 
C    -0.9860957    3.9917779    0.1435340 
C     0.7142357    3.4661590   -1.5738880 
C    -0.6137642    3.6528330   -1.2527370 
C     2.4342876    1.9243965   -1.7403017 
C     1.1131888    2.2467680   -2.2597949 
C     2.8216771    0.5894424   -1.6502828 
C     3.2010445    0.8201783    0.7740563 
C     3.3784235    0.0596386   -0.4351736 
C     1.3410249    0.7596506    2.4675968 
C     2.5104216    0.1236298    1.8612175 
C     0.1396790   -0.0256372    2.7309479 
C    -1.3209993    1.9673300    2.1693317 
C    -1.1900599    0.5203597    2.4412140 
C    -2.2421099    3.4294959    0.3771459 
C    -2.4557527    2.4609255    1.4127070 
C    -1.6175741    2.7359439   -1.7758727 
C    -2.7308420    2.8340173   -0.8838518 
C     0.1837184    1.2055424   -2.5695971 
C    -1.2439205    1.4560413   -2.3354642 
C     2.0377629   -0.4324039   -2.2874757 
C     0.6811289   -0.1816433   -2.6540267 
C     3.2016894   -1.3644266   -0.4815395 
C     2.4477382   -1.6826853   -1.6977628 
C     2.5622524   -1.2935402    1.8636624 
C     2.9549974   -2.0801793    0.6771318 
C     0.2862034   -1.4345181    2.7886810 
C     1.5480657   -2.0270634    2.4925363 
C    -0.7352415   -2.3602597    2.3371301 
C    -2.2004064   -0.4013150    1.9666952 
C    -1.9359020   -1.8395025    1.8225080 
C    -3.3748910    1.5007480    0.8898783 
C    -3.4752640    1.7203261   -0.5800613 
C    -3.2415099    0.1433829    1.1152889 
C    -2.1296570    0.3052283   -2.1168653 
C    -3.2441533    0.4880636   -1.2251178 
C    -3.4515714   -0.5096226   -0.1864964 
C    -0.2381798   -1.3205412   -2.6161064 
C    -1.6428773   -1.0678475   -2.2954099 
C     1.6325865   -2.7798036   -1.7548069 
C     0.3082364   -2.6343198   -2.3477975 
C     2.1483877   -3.2927045    0.6292281 
C     1.3258956   -3.2908468    1.7953075 
C    -0.0655812   -3.5333617    1.7353680 
C     1.5584880   -3.6979578   -0.6049211 
C    -0.4833262   -3.6612086   -1.7536026 
C    -0.5985334   -4.1294382    0.5591773 
C     0.2526401   -4.2277147   -0.5994367 
C    -2.5230897   -2.5721475    0.7013842 
C    -3.0656827   -1.7789316   -0.3964334 
C    -2.3605874   -2.1219895   -1.6256017 
C    -1.8679544   -3.6549654    0.1083057 
C    -1.7764071   -3.3769505   -1.3567609 
