60 

C     1.0996289   -4.2504396   -0.5925850 
C     0.7855345   -4.0617259    0.8167847 
C    -0.5743745   -3.7124407    0.9038034 
C    -0.0517397   -3.8628742   -1.3751909 
C    -1.1193711   -3.6352179   -0.4812014 
C     0.3181412   -2.7951964   -2.2838108 
C     2.1501296   -3.3860941   -0.9161463 
C     1.7369464   -2.5751034   -2.0553400 
C     1.7612393   -3.1378746    1.3669435 
C     2.6386152   -2.7184793    0.2807642 
C     1.3444423   -2.1638284    2.2893651 
C    -1.0202398   -2.7348750    1.8780868 
C    -0.0418093   -1.9993439    2.6237105 
C    -2.2360617   -2.1042255    1.6165735 
C    -2.1185000   -2.6969499   -0.8067366 
C    -2.9015183   -2.2405056    0.3101801 
C    -0.5476909   -1.6862107   -2.4987456 
C    -1.8903687   -1.7687604   -1.9277807 
C     0.0422943   -0.3503744   -2.7542510 
C     2.2437305   -1.3069218   -2.1370457 
C     1.4428060   -0.2103894   -2.6285211 
C     3.1350864   -1.3873404    0.1985067 
C     3.1192937   -0.7708958   -1.0983011 
C     1.9841567   -0.8663297    2.3274432 
C     2.9438360   -0.4836726    1.3461363 
C    -0.2507715   -0.5909096    2.8958505 
C     1.0181495    0.0863905    2.7898908 
C    -2.5253599   -0.7512505    2.1017873 
C    -1.4506021    0.0910623    2.5861515 
C    -3.7572187   -1.1554999    0.1639432 
C    -3.5465981   -0.2249252    1.2998848 
C    -2.6945829   -0.6027591   -1.9927575 
C    -3.7233572   -0.3856792   -1.0140994 
C    -0.7440573    0.8755219   -2.6056438 
C    -2.1199528    0.6981418   -2.3255995 
C    -0.1040100    2.1777983   -2.2880370 
C     2.0552853    1.0148560   -2.1806380 
C     3.1198192    0.6426285   -1.2516120 
C     1.3528889    2.2437881   -2.0661963 
C     3.1370971    0.9021905    1.1866513 
C     3.3783210    1.4718698   -0.1521364 
C     1.1094502    1.4733066    2.5209150 
C     2.3444130    1.8766499    1.9003087 
C    -1.4049239    1.5140068    2.2074385 
C    -0.1298675    2.2412117    2.2982314 
C    -3.4510637    1.0967009    0.8046754 
C    -3.6729943    1.0018424   -0.6238226 
C    -2.8265371    1.6900819   -1.5283640 
C    -2.4463637    1.9976660    1.2976372 
C    -0.8991132    3.1826555   -1.6357509 
C    -2.1647311    2.8013883   -1.0669999 
C    -2.1102398    3.0565303    0.3895794 
C    -0.0007664    3.4927373    1.5955736 
C    -0.2948955    4.0620875   -0.6785714 
C    -0.9826757    3.8310398    0.6118681 
C     1.9326753    3.2237854   -1.1627169 
C     2.9092209    2.7859439   -0.1942086 
C     2.3797267    3.0950184    1.1417774 
C     1.0552392    4.1013022   -0.4473985 
C     1.2641887    3.8888904    1.0197467 
