60 

C     0.5277799   -4.4553790    0.5532596 
C     0.0206905   -4.1869416   -0.8030182 
C     0.9780399   -3.4049369   -1.5162316 
C     1.7437758   -3.8027535    0.7041344 
C     2.1279932   -3.3034958   -0.6138792 
C     1.5858603   -2.7976736    1.7669965 
C    -0.4318328   -3.9057633    1.4779006 
C     0.2120990   -2.8425323    2.2164813 
C    -1.3303378   -3.7658013   -0.6936580 
C    -1.6199844   -3.6106301    0.7594631 
C    -1.7772806   -2.7604438   -1.5529247 
C     0.5691528   -2.2261917   -2.2542592 
C    -0.8308760   -1.9975228   -2.3557023 
C     1.4418923   -1.0499640   -2.3483859 
C     2.9033175   -2.1947269   -0.6625205 
C     2.7194969   -1.1759728   -1.6998078 
C     2.2827209   -1.5802286    1.6952602 
C     3.2185103   -1.4669709    0.5856577 
C     1.6761388   -0.3413244    2.2130834 
C    -0.4754037   -1.6177947    2.4932421 
C     0.2603458   -0.3548077    2.5653889 
C    -2.3874572   -2.5266783    1.1730097 
C    -1.8645628   -1.5725359    2.1207465 
C    -2.8263833   -1.8577770   -1.1424754 
C    -3.1847788   -1.7756210    0.2168028 
C    -1.3559014   -0.6729298   -2.5460402 
C    -2.6663450   -0.6311864   -1.9027174 
C     0.9075925    0.3030952   -2.5414127 
C    -0.5433238    0.4864466   -2.6398455 
C     1.7214515    1.4695054   -2.1756238 
C     3.4062755   -0.0420332   -1.2585357 
C     3.6604964   -0.2191109    0.1935026 
C     2.9529651    1.2560478   -1.4614641 
C     2.3195817    0.9265426    1.8986095 
C     3.3040443    0.9720489    0.8466010 
C     3.1807977    1.9866546   -0.1980692 
C     1.6058612    2.1450223    2.1117275 
C    -0.5016350    0.9050905    2.5632596 
C     0.2011294    2.1247412    2.4323958 
C    -2.5519599   -0.3244482    1.9126440 
C    -3.4441735   -0.4835712    0.7813469 
C    -1.9296186    0.9165949    2.2026940 
C    -3.1842636    0.5554340   -1.4411934 
C    -3.6764958    0.6155599   -0.0601289 
C    -1.1684544    1.7844564   -2.3168134 
C    -2.5015156    1.8026975   -1.7484481 
C     1.1064635    2.7460426   -1.9450088 
C    -0.3448562    2.8940762   -1.9951559 
C     2.5254948    3.1658650    0.0392630 
C     1.8722637    3.3135811    1.3182181 
C     1.6320879    3.6695491   -0.9823501 
C    -0.4010533    3.3242385    1.8193844 
C    -0.7079984    3.8492445   -0.9623175 
C     0.6401757    4.0120637    1.0967659 
C     0.5021637    4.2424097   -0.3010367 
C    -2.4798084    2.0736353    1.5390818 
C    -3.3355727    1.8837446    0.4187763 
C    -2.7863441    2.6927131   -0.6811292 
C    -1.6580452    3.2374272    1.2584086 
C    -1.8403962    3.5932190   -0.1739524 
