60 

C     1.8377102    2.3700353    2.4334982 
C     1.2498307    3.3956872    1.7053794 
C     1.9571683    3.5370481    0.4189493 
C     2.9469528    1.8564445    1.6542254 
C     2.9040171    2.4752080    0.3395119 
C     2.9431060    0.4617154    1.7548873 
C     1.0321663    1.2484769    2.8619492 
C     1.8022012    0.0734265    2.5856335 
C    -0.3881718    1.2262153    2.6873591 
C    -0.1512985    3.4446856    1.5005390 
C    -1.0036755    2.4189873    2.0701195 
C     0.9631124    3.7349320   -0.5663957 
C    -0.3379010    3.8463706    0.1109326 
C     1.0312099    2.9849906   -1.7528769 
C     2.9517831    1.6281670   -0.8276898 
C     2.0451292    1.9692737   -1.8870971 
C     3.3410578   -0.3706111    0.6667100 
C     3.3458716    0.2135173   -0.6797887 
C     3.0258009   -1.7518391    0.8473443 
C     1.1997179   -1.1935120    2.4712746 
C     1.9521196   -2.1585070    1.7386180 
C    -1.0581714   -0.0849527    2.6167804 
C    -0.2505910   -1.2961982    2.6046483 
C    -2.4395070   -0.1576947    2.1085279 
C    -2.2734281    2.2665943    1.4479646 
C    -2.9792982    0.9884592    1.4652750 
C    -1.5108366    3.5049511   -0.5511409 
C    -2.5528545    2.9168900    0.2082575 
C    -0.1979106    2.4502480   -2.3371025 
C    -1.4385189    2.7525478   -1.8049107 
C     1.4693300    0.9105500   -2.6947838 
C     0.0626979    1.1161564   -2.8490514 
C     3.0555188   -0.6852408   -1.7574371 
C     1.9823741   -0.3615146   -2.6590347 
C     2.9771703   -2.6318130   -0.2772233 
C     2.9594132   -2.1011786   -1.5542269 
C     1.2786787   -3.3169109    1.1544995 
C     1.8442921   -3.5578135   -0.1182805 
C    -0.8428789   -2.5459667    2.1716735 
C    -0.0830659   -3.4717195    1.3194878 
C    -2.9767001   -1.4256919    1.6689442 
C    -2.1821657   -2.6112392    1.7849329 
C    -3.6434547   -1.5248326    0.4062110 
C    -3.6553791    0.8502333    0.1873205 
C    -3.2314434    1.9413878   -0.6153129 
C    -2.4734647    1.7221518   -1.7885570 
C    -3.7386480   -0.4006710   -0.4243871 
C    -0.8811465    0.0360425   -2.7497773 
C    -2.2043887    0.3652379   -2.2387710 
C    -2.9604000   -0.6731727   -1.6441124 
C     1.0669194   -1.5055828   -2.7589959 
C     1.7199101   -2.6011463   -2.1868516 
C     1.0235054   -3.4740699   -1.2828746 
C    -0.3636175   -1.3276723   -2.6372336 
C    -0.9126896   -3.7240454    0.1487896 
C    -2.2310216   -3.3480899    0.5113584 
C    -3.0184042   -2.6097756   -0.3539095 
C    -2.4617669   -2.0326565   -1.5499622 
C    -0.3996723   -3.3960833   -1.1586425 
C    -1.1262938   -2.3664296   -1.9451749 
