60 

C     0.6553122   -3.7984746   -1.5197892 
C     1.1251855   -4.0806320   -0.2138397 
C     2.3357090   -3.3127285    0.0142611 
C     1.5398141   -2.8042344   -2.0825302 
C     2.5849046   -2.4932076   -1.1292008 
C     0.7722445   -1.7497015   -2.6288219 
C    -0.6919401   -3.3458609   -1.7112358 
C    -0.6367833   -2.0662182   -2.4527342 
C    -1.6092813   -3.4660035   -0.6749991 
C     0.2608386   -3.9181705    0.9164327 
C    -1.1218289   -3.7891212    0.6849045 
C     2.2181034   -2.6949828    1.2941733 
C     0.9037351   -2.9925056    1.8502131 
C     2.7557295   -1.4309932    1.4669590 
C     3.0054002   -1.1427852   -0.9837015 
C     3.3153445   -0.7035664    0.3470938 
C     1.2370805   -0.4003307   -2.6135860 
C     2.4805546   -0.1199783   -1.9012474 
C     0.2391746    0.6363992   -2.8068138 
C    -1.6032021   -1.0536659   -2.3314631 
C    -1.1823814    0.3214844   -2.6501294 
C    -2.6624708   -2.4665667   -0.5538372 
C    -2.7269505   -1.3061098   -1.4103454 
C    -1.8665273   -2.9852539    1.5713609 
C    -2.9129600   -2.2925919    0.8239512 
C     0.1673351   -1.9557424    2.5078183 
C    -1.2640036   -2.0166995    2.4155386 
C     2.1121361   -0.4495905    2.3276215 
C     0.7655381   -0.6361845    2.7344254 
C     3.3341944    0.6904532    0.6990092 
C     2.6246299    0.8423761    1.9624921 
C     2.7833216    1.2329595   -1.6131058 
C     3.2085374    1.6628674   -0.2810594 
C     0.6616444    1.9922026   -2.6260175 
C     1.9467390    2.2586913   -2.1092091 
C    -0.2298459    3.0286906   -2.0971299 
C    -2.0505781    1.3867035   -2.2743441 
C    -1.5494112    2.7135761   -1.9035983 
C    -3.4100271   -0.1840103   -0.8804998 
C    -3.1465202    1.1122534   -1.4110137 
C    -3.1343055   -1.0176151    1.3989302 
C    -2.0665492   -0.7899527    2.3588901 
C    -3.5455864    0.0016562    0.5548567 
C    -0.0810103    0.5731703    2.8401167 
C    -1.5132123    0.4979804    2.5211753 
C     1.8949105    1.9861119    2.2269442 
C     0.5442313    1.8377837    2.7219523 
C     2.5639667    2.9402456    0.0249642 
C     1.8504913    3.3474613   -1.1348696 
C     0.5078429    3.8153283   -1.0969344 
C     1.9288832    3.1144038    1.2878007 
C    -0.1905787    2.9804886    2.2242245 
C    -0.0924791    4.0619626    0.1642871 
C     0.6660807    3.7560158    1.3395938 
C    -2.2133415    3.1015085   -0.6459071 
C    -3.1695262    2.0929803   -0.3622465 
C    -3.1973054    1.3661814    0.8751250 
C    -2.1950004    1.6356166    1.8566531 
C    -1.4533290    3.6069322    0.4003653 
C    -1.4726782    2.8689932    1.6880758 
