60 

C     0.4532480   -4.0747111    1.5469020 
C    -0.0937131   -4.2438975    0.2245914 
C     0.8634574   -3.7803526   -0.7441463 
C     1.7226856   -3.4702089    1.4410610 
C     2.0515794   -3.4071682    0.0305233 
C     1.7090205   -2.2230184    2.1804828 
C    -0.4216007   -3.1863487    2.2637771 
C     0.3576630   -2.0355452    2.6673901 
C    -1.4287018   -3.7146198    0.2311850 
C    -1.6089084   -2.9853893    1.5115600 
C    -1.9074230   -3.1445695   -0.9266311 
C     0.4303500   -2.9454116   -1.8327953 
C    -0.9851397   -2.8476422   -2.0215274 
C     1.2591115   -1.8009096   -2.2700858 
C     2.8280696   -2.3663915   -0.3964605 
C     2.5405386   -1.6814115   -1.6663930 
C     2.4642550   -1.1103632    1.7399597 
C     3.2480436   -1.3267795    0.5447197 
C     1.9912661    0.2441187    2.0361131 
C    -0.2251800   -0.7560431    2.6906457 
C     0.6448795    0.4210759    2.5511641 
C    -2.2678978   -1.7338332    1.5453582 
C    -1.6435693   -0.6668710    2.3374818 
C    -2.8884388   -2.0664352   -0.8485926 
C    -3.1074098   -1.3688567    0.3939960 
C    -1.5172799   -1.7073809   -2.6570240 
C    -2.7659948   -1.3091418   -2.0352513 
C     0.6434063   -0.5452533   -2.7548147 
C    -0.7630098   -0.5409069   -2.9496728 
C     1.2589033    0.7650647   -2.5573677 
C     3.1755115   -0.4311754   -1.6132639 
C     3.6182914   -0.2189293   -0.2306913 
C     2.5870328    0.7752050   -2.0398102 
C     2.6333996    1.3819879    1.3550138 
C     3.3805013    1.1040948    0.1427681 
C     2.9881786    1.8019913   -1.0842474 
C     2.0687866    2.6721384    1.4372189 
C     0.0227728    1.7487946    2.5189417 
C     0.7724599    2.8860355    2.0746971 
C    -2.2031513    0.6219235    2.2565868 
C    -1.4000904    1.8240317    2.3992494 
C    -3.5444443   -0.0229331    0.2867865 
C    -3.2542682    0.8858125    1.3341111 
C    -2.8334292    0.1095687   -2.0477100 
C    -1.5836117    0.6186690   -2.6319868 
C    -3.3808820    0.7471672   -0.9494327 
C     0.4330934    1.9749674   -2.3366572 
C    -1.0300030    1.8470249   -2.2388427 
C     2.3002791    2.9749001   -1.0046960 
C     2.1389187    3.5701256    0.3015453 
C     1.0245666    3.1174466   -1.7250613 
C     0.1245334    3.9707224    1.3845688 
C     0.9591032    4.3417612    0.2800925 
C     0.2325173    4.0117874   -0.9246335 
C    -2.0032030    2.8491893    1.5547953 
C    -3.0257885    2.2071176    0.8017386 
C    -2.9218349    2.0784813   -0.6074291 
C    -1.8001520    2.6830010   -1.2894992 
C    -1.2026514    3.7741558    0.9001343 
C    -1.1186466    3.7041386   -0.5804355 
