60 

C     2.3990953   -3.7488798    0.0639694 
C     1.0752549   -4.1872120   -0.0330705 
C     0.5190640   -3.7594142   -1.3199597 
C     2.6349999   -2.8747743   -1.0563940 
C     1.4380418   -2.7796355   -1.8751272 
C     3.1725967   -1.6756243   -0.5694464 
C     2.4929241   -2.9149638    1.2642793 
C     3.0638988   -1.6951699    0.9205445 
C     0.3547902   -3.8235013    1.1858346 
C     1.1962982   -2.8863377    1.9169772 
C    -1.0181827   -3.6243802    1.0956241 
C    -0.8404236   -3.5289400   -1.3852898 
C    -1.6418540   -3.7099669   -0.1976488 
C    -1.3603355   -2.3488725   -2.0638450 
C     0.9546793   -1.5007577   -2.3214288 
C    -0.4911116   -1.2898335   -2.4712314 
C     2.9294528   -0.4709278   -1.2380692 
C     1.7972249   -0.3212835   -2.1378036 
C     3.3870245    0.6482501   -0.4934035 
C     2.6766468   -0.4924643    1.5877415 
C     3.1632987    0.6685217    0.9720554 
C     0.6390906   -1.6575862    2.4101934 
C     1.4444122   -0.4331940    2.3564561 
C    -1.6434390   -2.5193818    1.7869068 
C    -0.8275710   -1.5414889    2.4200189 
C    -2.7431726   -2.8051849   -0.2364639 
C    -2.6557302   -2.0527636   -1.4605886 
C    -2.7931175   -2.0829543    0.9920275 
C    -3.1473872   -0.7807059   -1.4945044 
C    -1.0387197    0.0762319   -2.5462485 
C    -2.4281244    0.2471111   -2.2142090 
C     1.2742867    1.0250743   -2.3374361 
C    -0.1692807    1.2417825   -2.4751394 
C     3.2008616    1.9137631   -0.9864606 
C     2.1165852    2.1428852   -1.9286657 
C     2.7242124    1.9808585    1.3132274 
C     2.9887083    2.8136708    0.1537655 
C     0.8355734    0.8821028    2.5267530 
C     1.5012676    2.1149481    2.0594048 
C    -1.3930846   -0.2353449    2.5651112 
C    -0.5812955    0.9205920    2.7128437 
C    -3.2654277   -0.7393563    1.0060300 
C    -3.6908901   -0.1717453   -0.2595408 
C    -2.6593445    0.1490935    1.9433937 
C    -2.8874911    1.4727561   -1.6787133 
C    -3.6377709    1.2092951   -0.4443178 
C    -0.7319995    2.5394458   -2.0356213 
C    -2.0595599    2.5811822   -1.5122525 
C     1.5420797    3.3864323   -1.5610787 
C     2.0988401    3.7895059   -0.2392939 
C     0.1393469    3.5534490   -1.5101052 
C     0.6861262    3.2770874    1.7326533 
C     1.0113720    4.0922072    0.6026703 
C    -0.1801186    4.1499523   -0.2325552 
C    -1.3835163    2.0648201    2.2876577 
C    -2.6429985    1.5688117    1.7486732 
C    -3.1433286    2.1156080    0.5400318 
C    -2.3284297    3.0974619   -0.1472185 
C    -0.7740288    3.1861709    1.7747328 
C    -1.3003200    3.7435735    0.5235543 
