60 

C     3.5053761    0.2578598   -2.2289593 
C     2.9188029   -0.9510581   -2.5160818 
C     3.1919279   -1.8923914   -1.4150776 
C     4.1701983    0.1098444   -0.9074645 
C     3.8223375   -1.1882129   -0.3477808 
C     3.8757338    1.2450726   -0.1866566 
C     2.6680330    1.4447366   -2.1976819 
C     3.0308417    2.1381953   -1.0131548 
C     1.2815919    1.3878871   -2.5719267 
C     1.5328700   -1.0649113   -2.8766005 
C     0.7119267    0.1074386   -3.0108002 
C     2.0262363   -2.6596334   -1.2341377 
C     0.9976248   -2.1997978   -2.1884419 
C     1.6425110   -2.9522743    0.0697255 
C     3.2690817   -1.2768205    0.9866408 
C     2.2767206   -2.3025329    1.1793610 
C     3.3328718    1.2169363    1.1378964 
C     3.0879549   -0.0429358    1.7805751 
C     2.0851809    2.7243027   -0.1616087 
C     2.3271851    2.2629920    1.2015667 
C     0.3810293    2.3253841   -1.9092067 
C     0.7602858    2.9457726   -0.6365336 
C    -0.9976248    2.1997978   -2.1884419 
C    -0.7119267   -0.1074386   -3.0108002 
C    -1.5328700    1.0649113   -2.8766005 
C    -0.3810293   -2.3253841   -1.9092067 
C    -1.2815919   -1.3878871   -2.5719267 
C     0.2305304   -3.1450079    0.3710079 
C    -0.7602858   -2.9457726   -0.6365336 
C     1.2691951   -2.2313066    2.2198605 
C    -0.0017646   -2.7839711    1.7253353 
C     2.0977039   -0.0176302    2.8138603 
C     1.2563375   -1.1685768    3.1050517 
C     1.2657841    2.2288944    2.1319111 
C     1.2639704    1.1405521    3.0594395 
C    -0.2305304    3.1450079    0.3710079 
C     0.0017646    2.7839711    1.7253353 
C    -2.0262363    2.6596334   -1.2341377 
C    -1.6425110    2.9522743    0.0697255 
C    -2.9188029    0.9510581   -2.5160818 
C    -3.1919279    1.8923914   -1.4150776 
C    -2.6680330   -1.4447366   -2.1976819 
C    -3.5053761   -0.2578598   -2.2289593 
C    -2.0851809   -2.7243027   -0.1616087 
C    -3.0308417   -2.1381953   -1.0131548 
C    -1.2657841   -2.2288944    2.1319111 
C    -2.3271851   -2.2629920    1.2015667 
C    -0.0138808   -0.7031798    3.6198817 
C     0.0138808    0.7031798    3.6198817 
C    -1.2639704   -1.1405521    3.0594395 
C    -1.2691951    2.2313066    2.2198605 
C    -2.2767206    2.3025329    1.1793610 
C    -1.2563375    1.1685768    3.1050517 
C    -2.0977039    0.0176302    2.8138603 
C    -3.8223375    1.1882129   -0.3477808 
C    -4.1701983   -0.1098444   -0.9074645 
C    -3.8757338   -1.2450726   -0.1866566 
C    -3.3328718   -1.2169363    1.1378964 
C    -3.2690817    1.2768205    0.9866408 
C    -3.0879549    0.0429358    1.7805751 
