60 

C     2.9965220   -2.5035439    0.5244581 
C     3.6948042   -1.4178587    0.0510551 
C     3.3426438   -1.2299844   -1.3745084 
C     2.2217320   -3.0750707   -0.6002128 
C     2.3503500   -2.1893408   -1.7252268 
C     0.9834510   -3.4859047   -0.1215845 
C     2.1209018   -2.3946293    1.6520773 
C     0.9760838   -3.2169576    1.3317292 
C     1.9507917   -1.1422173    2.3326784 
C     3.6169440   -0.1636721    0.7133755 
C     2.7981566   -0.0226308    1.9011963 
C     3.1514774    0.1464994   -1.5780729 
C     3.5307372    0.8368722   -0.3442415 
C     2.0581431    0.6131004   -2.3752062 
C     1.1858151   -1.7739786   -2.4403490 
C     1.1650417   -0.3901601   -2.9473996 
C    -0.2029811   -3.2521859   -0.9126349 
C    -0.0782530   -2.4439873   -2.1195491 
C    -1.4455388   -3.2508276   -0.1944341 
C    -0.2192295   -2.9935355    1.9670428 
C    -1.4364122   -3.2081506    1.2232307 
C     0.6286696   -0.8556790    2.9379838 
C    -0.3927385   -1.8329850    2.8151104 
C     0.1904492    0.5376410    3.1717044 
C     2.3626768    1.3113083    2.1917184 
C     1.0624065    1.5948127    2.8272893 
C     2.9987422    2.0737761   -0.0640509 
C     2.6245579    2.3576850    1.2829260 
C     1.5419134    1.9646578   -2.0786461 
C     1.9967495    2.6568156   -0.9392450 
C     0.2139118    2.3115068   -2.5395304 
C    -0.0557587    0.0774321   -3.5315748 
C    -0.4621721    1.4463950   -3.3945095 
C    -1.2852147   -1.8435564   -2.6194024 
C    -1.2374853   -0.7116019   -3.4290733 
C    -2.5535797   -2.3918452   -0.5937716 
C    -2.4964920   -1.7283877   -1.7832780 
C    -2.4296215   -2.2889160    1.6938432 
C    -1.8153562   -1.4636466    2.6920856 
C    -3.0972691   -1.7074941    0.5764008 
C    -1.2303976    0.8534767    3.1518744 
C    -2.2128047   -0.1522900    2.7720237 
C    -1.6948680    2.0772123    2.6334260 
C     0.5552506    2.8460848    2.2732463 
C     1.4695108    3.2320236    1.2495175 
C     1.0472620    3.3910724   -0.0834887 
C    -0.8174462    3.0084346    2.0357759 
C    -0.7653194    2.9381007   -1.6522012 
C    -0.3733678    3.4042119   -0.3814259 
C    -1.3048042    3.2582426    0.6870041 
C    -1.8920799    1.4815913   -3.0299817 
C    -2.3595988    0.1843963   -3.0320314 
C    -3.0279412   -0.3744261   -1.9113409 
C    -2.0510850    2.2940201   -1.8754916 
C    -3.3786885   -0.3027672    0.5393708 
C    -3.0965472    0.4157028    1.7517297 
C    -2.7894589    1.7913659    1.7033445 
C    -2.5235000    2.4603609    0.4924682 
C    -3.2890860    0.4193724   -0.7436695 
C    -2.8205996    1.8240594   -0.7595539 
