60 

C    -4.4157416    0.3939785   -0.4811643 
C    -4.2028582   -0.5957976    0.5152520 
C    -3.5666946    0.0316774    1.6289744 
C    -3.7360185    1.6101388   -0.0749424 
C    -3.2597027    1.4264952    1.2482431 
C    -2.8341674    2.0000509   -1.1177585 
C    -3.8604248   -0.0370944   -1.7138899 
C    -3.0383619    1.0425852   -2.2144925 
C    -3.5083768   -1.6998858   -0.1339357 
C    -3.2720056   -1.3411051   -1.5352402 
C    -2.4878577   -2.3314384    0.5553695 
C    -2.6336028   -0.6920681    2.4250726 
C    -2.1507692   -1.9417405    1.9109814 
C    -1.7153509    0.0915188    3.2008792 
C    -2.0210948    2.0027559    1.6328929 
C    -1.4041917    1.4551441    2.7930104 
C    -1.5134250    2.4714054   -0.8207732 
C    -1.1602031    2.6049232    0.5864764 
C    -0.4489695    2.2883949   -1.8242056 
C    -1.9821892    0.7173434   -3.0118051 
C    -0.7601002    1.5070487   -2.9774325 
C    -2.0313406   -1.6487028   -2.1753768 
C    -1.5904432   -0.6966415   -3.1528995 
C    -1.2429336   -2.7232373   -0.1060968 
C    -0.9714102   -2.3872109   -1.4505021 
C    -0.7829000   -2.3377000    2.1446268 
C    -0.2056062   -2.7857043    0.8913786 
C    -0.5254150   -0.4883634    3.7098812 
C     0.0070038   -1.6684145    3.0814137 
C    -0.0070038    1.6684145    3.0814137 
C     0.5254150    0.4883634    3.7098812 
C     0.2056062    2.7857043    0.8913786 
C     0.7829000    2.3377000    2.1446268 
C     0.9714102    2.3872109   -1.4505021 
C     1.2429336    2.7232373   -0.1060968 
C     2.0313406    1.6487028   -2.1753768 
C     0.2517729    0.6889046   -3.5339372 
C    -0.2517729   -0.6889046   -3.5339372 
C     1.5904432    0.6966415   -3.1528995 
C     0.4489695   -2.2883949   -1.8242056 
C     0.7601002   -1.5070487   -2.9774325 
C     1.9821892   -0.7173434   -3.0118051 
C     1.1602031   -2.6049232    0.5864764 
C     1.5134250   -2.4714054   -0.8207732 
C     1.4041917   -1.4551441    2.7930104 
C     1.7153509   -0.0915188    3.2008792 
C     2.0210948   -2.0027559    1.6328929 
C     2.1507692    1.9417405    1.9109814 
C     2.4878577    2.3314384    0.5553695 
C     2.6336028    0.6920681    2.4250726 
C     3.2720056    1.3411051   -1.5352402 
C     3.5083768    1.6998858   -0.1339357 
C     3.0383619   -1.0425852   -2.2144925 
C     2.8341674   -2.0000509   -1.1177585 
C     3.8604248    0.0370944   -1.7138899 
C     3.2597027   -1.4264952    1.2482431 
C     3.5666946   -0.0316774    1.6289744 
C     4.2028582    0.5957976    0.5152520 
C     3.7360185   -1.6101388   -0.0749424 
C     4.4157416   -0.3939785   -0.4811643 
