60 

C    -1.9633599   -4.2152669   -0.0513893 
C    -0.9252845   -4.3239509   -1.0448910 
C     0.2798736   -4.6302819   -0.3582326 
C    -1.2746564   -4.0028707    1.2474436 
C     0.0620207   -4.3356469    1.1141892 
C    -1.6396784   -2.7034928    1.7797176 
C    -2.6738592   -3.0416106   -0.3037790 
C    -2.6568870   -2.2102000    0.8854172 
C    -0.9683520   -3.1337286   -1.8982702 
C    -2.1507314   -2.4036157   -1.5093624 
C     0.2095920   -2.3599160   -2.1918056 
C     1.4344046   -3.9896858   -0.7275873 
C     1.4534311   -2.9113991   -1.6942959 
C     1.0810087   -3.4232175    1.5398188 
C     2.0725133   -3.4527986    0.4969874 
C    -0.6553613   -1.7571379    2.2354467 
C     0.7495571   -2.1245503    2.1248422 
C    -1.0283790   -0.3321869    2.2580034 
C    -2.9036412   -0.8646888    0.7476791 
C    -2.3262279    0.0449257    1.7311543 
C    -2.2463609   -1.0204980   -1.6292557 
C    -3.0236310   -0.3478040   -0.5979530 
C     0.1070848   -0.8808244   -2.3653111 
C    -1.1755152   -0.2275726   -2.2255323 
C     1.2971632   -0.0391209   -2.2533229 
C     2.4227550   -1.9839649   -1.2283485 
C     2.7744569   -2.3248014    0.1723737 
C     2.4682693   -0.6454761   -1.6440449 
C     1.7176250   -1.0480754    2.0110193 
C     2.8136366   -1.2411782    1.0873304 
C    -0.0389893    0.7240589    2.3887970 
C     1.3645070    0.3464078    2.3142121 
C    -0.4348053    2.1355438    2.1617821 
C    -2.7062781    1.3803413    1.6183600 
C    -1.7973102    2.4530651    1.9197242 
C    -3.2512262    1.0053910   -0.7313636 
C    -3.4867311    1.7966204    0.4530819 
C    -1.3009714    1.2340625   -2.2229800 
C    -2.5194537    1.8018257   -1.6983776 
C     1.2077688    1.4159417   -2.2188889 
C    -0.1030341    2.0629024   -2.2406971 
C     2.3302545    2.1569834   -1.6796383 
C     3.4085932    0.1351666   -0.9017229 
C     3.5182145   -0.1455612    0.5610948 
C     3.4674098    1.5139273   -1.0742949 
C     2.3264945    1.3656607    2.0184144 
C     3.5066693    1.0710152    1.2234506 
C     3.7276129    2.1299620    0.2442628 
C     0.5673273    3.0775826    1.6279451 
C     2.0609689    3.3034956   -0.8211568 
C     1.9005823    2.6796542    1.5957385 
C     2.7584586    3.0824322    0.4434885 
C    -0.2179126    3.3948124   -1.6785182 
C     0.1571743    4.0107429    0.5701163 
C     0.8098036    3.8078132   -0.7461715 
C    -2.1850846    3.5814499    1.0598191 
C    -3.2004216    3.1333985    0.1562036 
C    -2.5933456    3.1497001   -1.2023892 
C    -1.1788872    4.2291472    0.3035749 
C    -1.4288552    3.8970929   -1.1519079 
