60 

C     0.2516938    4.0016314   -0.2877476 
C     0.1781956    3.6927279    1.1205634 
C    -1.1459185    3.1571875    1.3866547 
C    -1.0290008    3.6873965   -0.8644287 
C    -1.9353536    3.3142762    0.1582476 
C    -0.8414372    2.8248946   -1.9917408 
C     1.2586876    3.4116719   -1.0983376 
C     0.5835255    2.6356469   -2.1537571 
C     2.4039331    2.8972812   -0.4837987 
C     1.2882151    3.1106824    1.7288340 
C     2.4868989    2.9335099    0.9429381 
C     1.1260210    1.9182114    2.5588774 
C    -1.3165275    1.9893345    2.1967636 
C    -0.1343307    1.2911991    2.7236742 
C    -2.5138191    1.2228011    1.9756183 
C    -2.9391846    2.3877663   -0.1417106 
C    -3.3695924    1.5228505    0.8967827 
C    -1.7696574    1.7391187   -2.2208542 
C    -2.8862430    1.5943229   -1.3561267 
C    -1.2303960    0.5594330   -2.8194590 
C     1.1098164    1.3976898   -2.5928922 
C     0.1583045    0.4263649   -3.0532248 
C     2.9849926    1.6319652   -0.9490537 
C     2.3917415    0.8997504   -2.0219139 
C     3.1136453    1.7153184    1.3508901 
C     2.3304533    1.1194935    2.3742603 
C     3.4941589    0.9321273    0.2045609 
C     2.2596501   -0.2703475    2.4246853 
C    -0.1796458   -0.1843150    2.8979950 
C     1.0348985   -0.9097330    2.8117125 
C    -2.5607732   -0.2342311    2.1926524 
C    -1.4146846   -0.9353203    2.6301235 
C    -3.7970327    0.2618951    0.3117010 
C    -3.4171336    0.2561583   -1.0451438 
C    -3.4274828   -0.7998531    1.1742974 
C    -1.7744357   -0.7790644   -2.5479196 
C    -2.8343234   -0.9458295   -1.6104331 
C     0.4588524   -1.0006748   -3.0523546 
C    -0.7326287   -1.7447210   -2.7149399 
C     2.6618630   -0.4923985   -2.0692443 
C     1.7122794   -1.4483948   -2.6761430 
C     3.4849946   -0.4919613    0.2746277 
C     2.9672578   -1.1047186    1.4683549 
C     3.2608465   -1.1859692   -0.9591276 
C     1.1037864   -2.2693854    2.2890567 
C     2.2779311   -2.3664214    1.4205136 
C    -1.3283697   -2.3402633    2.2445147 
C    -0.0345892   -2.9833419    2.0142262 
C    -3.1313390   -2.0473447    0.6033219 
C    -2.8037832   -2.1308251   -0.8086617 
C    -2.2187955   -2.8766106    1.2913780 
C    -0.6607303   -2.9330622   -1.8992601 
C    -0.1164352   -3.7874929    0.7842898 
C    -1.7363334   -3.1285282   -0.9697024 
C    -1.4457707   -3.6491528    0.3196000 
C     1.8112870   -2.7017041   -2.0082860 
C     2.7517577   -2.5284554   -0.9457310 
C     2.1975616   -3.1144310    0.2325367 
C     0.6489482   -3.3975890   -1.5228213 
C     0.9335498   -3.7505669   -0.1394385 
