60 

C     1.0968545   -4.4736423   -0.2812276 
C     0.3410938   -4.5380283    0.8974440 
C    -0.9913115   -4.0873177    0.5943239 
C     0.2627462   -3.9605382   -1.3651515 
C    -1.0499155   -3.7473802   -0.8437027 
C     0.9448184   -2.8520014   -1.9660993 
C     2.1794077   -3.5415510   -0.0937922 
C     2.1692462   -2.6274788   -1.1852278 
C     0.9291817   -3.5920514    1.8526789 
C     2.0972819   -2.9899280    1.2494991 
C    -1.3119370   -3.0406793    1.4900496 
C    -0.0862521   -2.7079207    2.2703741 
C    -2.2095052   -2.0179371    1.1232341 
C    -1.7868259   -2.6208677   -1.2515950 
C    -2.6737382   -1.9863223   -0.2649715 
C     0.2317796   -1.7293041   -2.4453858 
C    -1.2082098   -1.7259199   -2.2586229 
C     0.9493413   -0.4520166   -2.5988865 
C     2.6615006   -1.3262999   -1.0230227 
C     2.2479185   -0.3144494   -1.9917710 
C     2.3645637   -1.6174052    1.4366794 
C     2.9776287   -0.8906430    0.3300331 
C     0.1848559   -1.3520306    2.5754833 
C     1.5072739   -0.8197886    2.3093105 
C    -2.1898463   -0.7912819    1.9068674 
C    -0.9619569   -0.4440763    2.6354597 
C    -3.0441213    0.2680365    1.4844437 
C    -3.4222165   -0.8737082   -0.6793970 
C    -3.7116140    0.1794208    0.2446678 
C    -1.9140143   -0.5325364   -2.5629882 
C    -3.1269566   -0.2330388   -1.9330240 
C     0.1866103    0.7705240   -2.8502746 
C    -1.2125574    0.7263341   -2.8120369 
C     0.7604609    2.0665108   -2.5736255 
C     2.8173029    0.9910960   -1.8325194 
C     2.1086766    2.1680869   -2.2373688 
C     3.2839905    0.4676280    0.5191098 
C     3.4476391    1.3204290   -0.5992025 
C     1.7257356    0.6121933    2.4178940 
C     2.7165196    1.2385286    1.6141255 
C    -0.7050924    0.9047944    2.9253045 
C     0.6463537    1.4372193    2.8770229 
C    -2.6720812    1.6686270    1.6745217 
C    -1.5950644    1.9746534    2.4753363 
C    -3.5805796    1.4762254   -0.4247954 
C    -3.1835250    1.2226162   -1.7399182 
C    -1.9910351    1.8089766   -2.2333615 
C    -2.8642932    2.3792296    0.4139381 
C     0.0074089    3.0902069   -1.8224678 
C    -1.3434878    2.8732673   -1.4967297 
C    -1.8018874    3.1872993   -0.1209924 
C     2.2526132    3.2098429   -1.2073697 
C     3.0564725    2.6738617   -0.2008430 
C     2.5852822    2.6224313    1.1526480 
C     0.9464094    3.7247981   -0.9101309 
C     0.5650563    2.7999242    2.4707843 
C    -0.7984722    3.1030365    2.1346619 
C    -0.8172756    3.6555128    0.8166556 
C     1.4324701    3.3591289    1.4823958 
C     0.5692778    3.9057038    0.4315549 
