60 

C    -0.4577834   -4.5964394   -0.0299244 
C     0.6820152   -4.2529486   -0.8665543 
C     1.7428310   -3.9136411   -0.0067209 
C    -0.1710030   -4.1760178    1.3279623 
C     1.1871229   -3.8322255    1.3832079 
C    -1.1547543   -3.1913517    1.7233169 
C    -1.5932040   -3.8963814   -0.4779678 
C    -2.1491608   -3.1802212    0.6568681 
C     0.2443158   -3.2744156   -1.8235988 
C    -1.2157304   -3.0941829   -1.6113322 
C     1.0218474   -2.1250192   -2.1154253 
C     2.5081691   -2.7611232   -0.2343262 
C     2.2698670   -1.9052515   -1.3621616 
C     1.5947580   -2.6018074    1.9329058 
C     2.6437015   -2.0925383    1.0610507 
C    -0.7726726   -1.9356401    2.3254490 
C     0.6465886   -1.6385228    2.4703544 
C    -1.7047753   -0.7996393    2.2258917 
C    -2.8392504   -2.0261799    0.4007899 
C    -2.7980308   -0.9279213    1.3181652 
C    -1.8597995   -1.8572066   -1.8706029 
C    -2.8895450   -1.4587609   -0.9511714 
C     0.3334919   -0.9527443   -2.6937507 
C    -1.1288731   -0.8108747   -2.5715413 
C     1.0875838    0.2085859   -2.9137257 
C     2.8478920   -0.5746392   -1.3152423 
C     2.3909082    0.3948642   -2.2580102 
C     3.0097602   -0.7901119    1.1295785 
C     3.3415190   -0.0539667   -0.0704561 
C     1.0840400   -0.2473687    2.5964791 
C     2.3581670    0.1067502    2.0548422 
C    -1.2953873    0.5540499    2.5846636 
C     0.1173316    0.8361738    2.8020192 
C    -2.1553111    1.6499756    2.1729068 
C    -3.3207231    0.2137611    0.6039697 
C    -3.2745387   -0.1037727   -0.8245502 
C    -3.0673801    1.4769185    1.0473948 
C    -1.6993026    0.4917508   -2.5966742 
C    -2.7797128    0.8625243   -1.7066093 
C     0.4694527    1.5215185   -3.0219358 
C    -0.8923888    1.6720939   -2.7702938 
C     2.5572283    1.7709542   -2.0089030 
C     1.3567423    2.4756621   -2.4550865 
C     3.2504325    1.3392370    0.2589830 
C     2.6526467    1.4317008    1.5908975 
C     2.8950144    2.2762688   -0.7262066 
C     0.5858425    2.1935751    2.6394938 
C     1.8070932    2.4723152    1.9150622 
C    -1.6593280    2.9659045    2.0632998 
C    -0.3264933    3.2499188    2.3092795 
C    -2.8317241    2.5662868    0.0845379 
C    -2.5683374    2.2209625   -1.2649475 
C    -1.3789764    2.7408238   -1.9141589 
C    -2.0089046    3.5066885    0.7223318 
C     0.9477112    3.4293527   -1.5007675 
C     1.9345605    3.3323728   -0.4079181 
C     1.5107090    3.5119004    0.9131460 
C     0.1921764    3.9727786    1.1535961 
C    -0.4620477    3.6099511   -1.2201236 
C    -0.8163813    4.0152935    0.1222442 
