60 

C     0.0145068    4.7284676    0.9267632 
C     0.8696336    4.6987102   -0.1764684 
C     0.1544688    4.2658306   -1.3793403 
C    -1.2567296    4.2246740    0.4787169 
C    -1.1747641    3.9138864   -0.9694070 
C    -1.6174760    3.1693806    1.3393002 
C     0.5462483    3.8056440    1.9372788 
C    -0.4750711    2.9083390    2.2728122 
C     1.9491136    3.7788147    0.0710584 
C     1.7578186    3.2039265    1.4048686 
C     0.9654320    3.2712940   -1.9989089 
C     2.0681342    2.9303233   -1.0678741 
C     0.3519068    2.2112890   -2.6475976 
C    -1.7806249    2.7169667   -1.4640523 
C    -1.0726415    2.0036236   -2.4904191 
C    -2.4018737    2.0767730    0.8887674 
C    -2.5935398    1.8835927   -0.5547810 
C    -2.4192210    0.9381570    1.7399841 
C    -0.1830814    1.5616065    2.6394493 
C    -1.2671405    0.6566207    2.6074341 
C     2.0170562    1.8329340    1.5766560 
C     1.1307949    1.0056226    2.4080170 
C     2.4657361    1.5865358   -0.9076718 
C     2.6671007    1.1368944    0.4645120 
C     0.9704742    0.9057384   -2.7188748 
C     2.0690961    0.5700066   -1.8838616 
C    -1.3171757    0.6170104   -2.7599751 
C    -0.0514783   -0.0764364   -2.9362705 
C    -2.9724563    0.5918741   -0.9720837 
C    -2.3547293   -0.0457100   -2.1250583 
C    -2.9461777   -0.3083083    1.3196488 
C    -3.2651293   -0.4799482   -0.0399227 
C    -1.0922050   -0.7480004    2.6919758 
C    -2.2223787   -1.3653613    2.0210486 
C     1.3173421   -0.4281066    2.4726488 
C     0.2030606   -1.3582156    2.6610922 
C     2.9656980   -0.1946940    0.6462286 
C     2.4735131   -0.9438827    1.8074733 
C     2.3302284   -0.8317887   -1.6458083 
C     3.0735467   -1.1258228   -0.4559383 
C     0.1138798   -1.4480774   -2.6279131 
C     1.4291673   -1.8747848   -2.1542097 
C    -2.2679100   -1.4599258   -1.9107879 
C    -2.9586627   -1.7399654   -0.6632233 
C    -1.0948388   -2.2049603   -2.2631547 
C    -2.1044306   -2.6246376    1.4935785 
C    -2.5718183   -2.8492144    0.1123475 
C     0.2947118   -2.7721301    2.2417857 
C    -0.8964100   -3.4067988    1.7096286 
C     2.6022919   -2.3006147    1.5183340 
C     3.0724879   -2.4200177    0.1119273 
C     1.5668843   -3.2562005    1.7270712 
C     1.5452571   -3.2113308   -1.6214369 
C     2.4091402   -3.4684096   -0.4807534 
C     1.6057163   -4.1339073    0.5692717 
C    -0.9302898   -3.4829672   -1.6279756 
C    -1.7170368   -3.8014463   -0.4518035 
C    -0.8013943   -4.2863318    0.5805502 
C     0.3746082   -3.9911393   -1.4128953 
C     0.4316311   -4.5554017   -0.0317617 
