60 

C     0.6481511    4.7508640    0.2776066 
C    -0.6297481    4.5710843   -0.3615299 
C    -1.5529142    4.1119144    0.6010280 
C     0.5720591    4.1025060    1.5838066 
C    -0.7691218    3.7480337    1.8145809 
C     1.5670801    3.0588379    1.6627590 
C     1.5952088    4.0126410   -0.4774352 
C     2.3187264    3.1570910    0.4183132 
C    -0.4251084    3.7532987   -1.5705357 
C     0.9726317    3.3809787   -1.6361717 
C    -1.3678888    2.7873078   -1.9030665 
C    -2.4236526    3.0387129    0.3027411 
C    -2.4850812    2.5216084   -1.0173521 
C    -1.1241362    2.4244409    2.1711617 
C    -2.2883243    2.0546456    1.3782126 
C     1.2561653    1.7405245    2.1431889 
C    -0.1354038    1.3958540    2.4187852 
C     2.1479184    0.6442598    1.7756442 
C     2.8948635    2.0296251   -0.1106901 
C     3.0594752    0.8801229    0.7097382 
C     1.3742723    2.0625964   -2.0601021 
C     2.5310344    1.5315837   -1.4352324 
C    -0.9678438    1.4889388   -2.4586945 
C     0.3796339    1.0627588   -2.5080764 
C    -2.8467997    1.1537612   -1.1809722 
C    -1.9945713    0.5352928   -2.1707411 
C    -2.6736854    0.7340861    1.2281801 
C    -3.2181885    0.3458959   -0.0725273 
C    -0.5679579    0.0101433    2.3918112 
C    -1.9489155   -0.2820652    1.9888416 
C     1.7838731   -0.7476671    2.0576924 
C     0.4005707   -1.0847154    2.3776939 
C     2.6369376   -1.7715185    1.5272944 
C     3.3962154   -0.1988719   -0.1835549 
C     2.8441520    0.1401865   -1.4804120 
C     3.4003618   -1.4731572    0.2927657 
C     0.6589329   -0.3959491   -2.4775001 
C     1.9992664   -0.8307036   -2.1032380 
C    -1.7768204   -0.8656123   -2.2070572 
C    -0.4266256   -1.3698412   -2.3876431 
C    -3.3818548   -1.0116869   -0.3513357 
C    -2.7448077   -1.6364808   -1.4920093 
C    -2.3533763   -1.6135454    1.8121454 
C    -3.2764271   -1.9568645    0.7240286 
C    -0.0558202   -2.4717687    2.1887138 
C    -1.4404381   -2.7120827    1.9407156 
C     2.1970379   -3.1148779    1.3918667 
C     0.8461937   -3.4562787    1.6440574 
C     3.1069278   -2.5123981   -0.6329346 
C     2.2349333   -2.1962467   -1.7379483 
C     2.6225414   -3.6561670    0.0850519 
C    -0.1656977   -2.7635841   -1.9538053 
C     0.4233184   -4.2126888    0.4588198 
C     1.1626724   -3.1550823   -1.6646331 
C     1.4569084   -4.0866353   -0.5410869 
C    -2.4993075   -3.0057573   -1.1263851 
C    -2.9998608   -3.2475242    0.2344652 
C    -1.8613063   -3.7115150    0.9566461 
C    -1.2081823   -3.5315652   -1.2862142 
C    -0.8781970   -4.1567437    0.0305289 
