60 

C     1.5429944   -4.0403332   -0.5279423 
C     1.1870516   -3.8974878    0.8547546 
C    -0.2382312   -3.7714986    0.9523830 
C     0.3632589   -3.9154646   -1.3292983 
C    -0.7592965   -3.9014074   -0.4251773 
C     0.5502540   -2.7915944   -2.1999284 
C     2.4752290   -3.0135058   -0.8681753 
C     1.8864334   -2.2467459   -1.9315848 
C     2.0526627   -2.8943854    1.4177838 
C     2.8716129   -2.3295422    0.3273499 
C     1.5025953   -2.0170121    2.3359809 
C    -0.8306506   -2.8059145    1.8379503 
C     0.0802634   -2.0226788    2.6185213 
C    -2.1306278   -2.1998981    1.4928400 
C    -1.8696953   -3.1840345   -0.7940874 
C    -2.6906169   -2.4996708    0.2004074 
C    -0.5386650   -1.9109548   -2.4927848 
C    -1.8126066   -2.3202998   -1.9793789 
C    -0.2853379   -0.4861720   -2.7209834 
C     2.1230357   -0.8734149   -2.0191130 
C     1.0884746   -0.0133885   -2.6250820 
C     3.1550171   -0.9539662    0.2714144 
C     3.0352165   -0.2880005   -1.0282963 
C     1.9758509   -0.6487291    2.4182865 
C     2.8794247   -0.1312228    1.4593159 
C    -0.2512163   -0.6847137    3.0425787 
C     0.9115871    0.1719745    2.9290202 
C    -2.4779439   -0.9235907    2.0495677 
C    -1.5120847   -0.1587731    2.8078065 
C    -3.2862492    0.0501066    1.3410046 
C    -3.4248054   -1.5079075   -0.4920064 
C    -2.8181427   -1.3542151   -1.8144585 
C    -3.6903234   -0.2234915    0.0225207 
C    -1.3676356    0.4911372   -2.5602952 
C    -2.6333346    0.0120212   -2.0836442 
C    -3.3576941    0.7446102   -1.0335405 
C    -1.0763081    1.9108669   -2.3352480 
C     1.3321737    1.3812553   -2.6238945 
C     0.2618632    2.3558329   -2.4499257 
C     3.2411926    1.1021484   -1.0780922 
C     2.5091276    1.9017005   -2.0149925 
C     2.9195426    1.2869986    1.3457713 
C     3.3501486    1.8773146    0.1302980 
C     0.7932302    1.5604892    2.6120231 
C     1.8958603    2.1393474    1.9291217 
C    -1.6768605    1.2618328    2.5447059 
C    -2.8180186    1.3812722    1.6746035 
C    -0.5491299    2.1386368    2.4371588 
C    -2.9886844    2.0194322   -0.7073790 
C    -1.9419180    2.6894161   -1.4714015 
C    -2.8373587    2.4006194    0.7049605 
C    -0.6867716    3.2854550    1.5709644 
C    -1.3760378    3.6668708   -0.6183632 
C    -1.8364712    3.3874595    0.7471294 
C     0.7925429    3.4543861   -1.6488021 
C     2.1641317    3.1675788   -1.3866010 
C     2.6438110    3.1295194   -0.0588899 
C     1.7289358    3.2898061    1.0420049 
C    -0.0002046    3.9672389   -0.5960814 
C     0.4493990    3.7846864    0.7972201 
