60 

C    -0.2776202    5.1556298    0.7398449 
C     1.0824405    5.1113945    0.4232115 
C     1.2531500    4.8677332   -0.9837442 
C    -1.0118601    4.7389235   -0.4853357 
C    -0.0804496    4.5719683   -1.5499656 
C    -1.8726578    3.6564238   -0.1397158 
C    -0.5333587    4.1300433    1.7275037 
C    -1.5853704    3.3109513    1.2741929 
C     1.7010773    3.9861829    1.1832374 
C     0.7130888    3.4121213    2.0412214 
C     1.9971606    3.6670086   -1.0849469 
C     2.3611191    3.1393049    0.2451526 
C    -0.0228892    3.2675188   -2.1662790 
C     1.3209621    2.7435649   -1.9498523 
C    -2.0710824    2.5548828   -1.0161607 
C    -1.0725175    2.3073811   -2.0472449 
C    -2.6874651    1.4006386   -0.4412081 
C    -1.7019655    1.9561373    1.7339700 
C    -2.5641803    1.1373823    0.9817751 
C     0.6862795    1.9989282    2.2348017 
C    -0.5873056    1.3016494    2.3859827 
C     2.3641728    1.7447113    0.4370698 
C     1.7143601    1.1950179    1.6102522 
C     1.5625385    1.3634034   -1.8523200 
C     2.3087265    0.8557447   -0.7233104 
C    -0.7775878    0.9190346   -2.3886284 
C     0.5863441    0.4648325   -2.4039815 
C    -2.7043089    0.1494981   -1.0804461 
C    -1.7754237   -0.1111147   -2.1374353 
C    -2.6294090   -0.2684219    1.1976221 
C    -2.8584311   -0.9123868   -0.0700508 
C    -0.6033895   -0.1226368    2.5494799 
C    -1.7664348   -0.9043705    2.1158684 
C     1.7071155   -0.2203714    1.7893164 
C     0.6533963   -0.8409847    2.5658130 
C     2.4004744   -0.5414189   -0.5294764 
C     2.4048297   -1.0494796    0.8295949 
C     0.9109242   -0.9412722   -2.4414606 
C     1.9772741   -1.4449165   -1.6003410 
C    -1.4725647   -1.4599762   -2.4147770 
C    -0.1447597   -1.8476533   -2.7717469 
C    -2.5452624   -2.2659251   -0.3097925 
C    -2.0240883   -2.5882825   -1.6239017 
C    -1.6820107   -2.3311161    2.0127700 
C    -2.1023235   -3.0518386    0.8016733 
C     0.6451300   -2.2626649    2.6998184 
C    -0.5831411   -3.0094346    2.5506924 
C     2.4326522   -2.4509977    1.0391110 
C     1.6498827   -3.0412818    2.0693514 
C     2.0965884   -2.8637947   -1.3883182 
C     2.3896189   -3.3407980   -0.0894308 
C    -0.0226489   -3.2564052   -2.5279353 
C    -1.2053925   -3.7091218   -1.7811467 
C     1.0957785   -3.7736054   -1.9128711 
C    -1.2503129   -4.2189804    0.6367317 
C    -0.3281013   -4.2108482    1.7540083 
C     1.0600481   -4.3060853    1.5467989 
C     1.5527702   -4.5168758    0.2397844 
C    -0.7538320   -4.5320397   -0.6670177 
C     0.6702420   -4.7129118   -0.8378087 
