60 

C     3.6061211    1.4507441    1.1876789 
C     3.9330710    1.1116057   -0.1161909 
C     4.0991479   -0.3560312   -0.1838877 
C     3.5781320    0.2216970    1.9850877 
C     3.7066070   -0.8954544    1.0809109 
C     2.4992264    0.3164799    2.8759235 
C     2.4203733    2.2027748    1.4617169 
C     1.8359243    1.6106453    2.6518557 
C     1.5648197    2.6365295    0.3937971 
C     3.1346477    1.5306538   -1.2077121 
C     1.9463263    2.3188318   -0.9937701 
C     3.5448399   -0.7998873   -1.3928805 
C     3.0932763    0.3955322   -2.1318416 
C     2.6937275   -1.9356584   -1.3912657 
C     2.6902914   -1.9347079    1.1024212 
C     2.2206048   -2.4487317   -0.1447549 
C     1.6643967   -0.8109273    3.0777244 
C     1.7247533   -1.9115335    2.1596722 
C     0.2837192   -0.6357004    3.4762877 
C     0.4864723    1.7393663    2.9125036 
C    -0.2837192    0.6357004    3.4762877 
C     0.1427769    2.8188329    0.7165920 
C    -0.3667506    2.4281604    1.9925037 
C    -0.8123911    2.8500739   -0.3378169 
C     0.9136416    2.2510207   -2.0249883 
C    -0.4348278    2.6074302   -1.6850419 
C     2.0886726    0.2951284   -3.0526415 
C     1.0678309    1.3295849   -3.1193157 
C     1.6018867   -2.0123502   -2.3396865 
C     1.4195008   -0.9998112   -3.2738906 
C     0.8123911   -2.8500739   -0.3378169 
C     0.4348278   -2.6074302   -1.6850419 
C     0.3667506   -2.4281604    1.9925037 
C    -0.4864723   -1.7393663    2.9125036 
C    -0.1427769   -2.8188329    0.7165920 
C    -1.8359243   -1.6106453    2.6518557 
C    -1.6643967    0.8109273    3.0777244 
C    -1.7247533    1.9115335    2.1596722 
C    -2.4992264   -0.3164799    2.8759235 
C    -2.2206048    2.4487317   -0.1447549 
C    -2.6902914    1.9347079    1.1024212 
C    -1.6018867    2.0123502   -2.3396865 
C    -2.6937275    1.9356584   -1.3912657 
C    -0.0895247    0.7142269   -3.6789906 
C     0.0895247   -0.7142269   -3.6789906 
C    -1.4195008    0.9998112   -3.2738906 
C    -0.9136416   -2.2510207   -2.0249883 
C    -1.0678309   -1.3295849   -3.1193157 
C    -2.0886726   -0.2951284   -3.0526415 
C    -1.5648197   -2.6365295    0.3937971 
C    -2.4203733   -2.2027748    1.4617169 
C    -1.9463263   -2.3188318   -0.9937701 
C    -3.5781320   -0.2216970    1.9850877 
C    -3.7066070    0.8954544    1.0809109 
C    -3.6061211   -1.4507441    1.1876789 
C    -3.5448399    0.7998873   -1.3928805 
C    -3.0932763   -0.3955322   -2.1318416 
C    -3.1346477   -1.5306538   -1.2077121 
C    -4.0991479    0.3560312   -0.1838877 
C    -3.9330710   -1.1116057   -0.1161909 
