60 

C     1.8606962   -4.1391797    0.4892850 
C     0.4642525   -4.2771106    0.7175480 
C    -0.2068693   -4.2711337   -0.5366458 
C     2.0137415   -3.7266446   -0.9145477 
C     0.7690644   -3.8232934   -1.5544785 
C     2.6814556   -2.4636272   -0.9619177 
C     2.3037827   -3.0259759    1.2565821 
C     2.9914676   -2.0900750    0.4144950 
C     0.0525658   -3.2731400    1.7278279 
C     1.2325820   -2.4999669    2.0756083 
C    -1.1886373   -2.6416060    1.6520707 
C    -1.3599860   -3.5002486   -0.6798814 
C    -2.0209172   -2.9358159    0.4683669 
C     0.1892272   -2.6949698   -2.2283679 
C    -1.1890159   -2.6119765   -1.8286004 
C     2.2384048   -1.4128361   -1.8375654 
C     0.9057330   -1.4727945   -2.4356373 
C     2.7869972   -0.1457529   -1.5469119 
C     3.0925074   -0.7487786    0.8019058 
C     3.3408567    0.1678521   -0.2578542 
C     1.1588490   -1.1094833    2.3552061 
C     2.2874858   -0.2730530    1.9249160 
C    -1.3290457   -1.2967543    2.2549027 
C    -0.1448093   -0.5005180    2.5401830 
C    -2.5590817   -0.6256822    2.0853857 
C    -3.0673225   -2.0752224    0.1670434 
C    -3.5544900   -1.1498483    1.1660420 
C    -1.9477277   -1.4317756   -1.9561771 
C    -3.1156518   -1.3784908   -1.1204959 
C     0.1575218   -0.2261223   -2.6008127 
C    -1.2921063   -0.2122901   -2.4015856 
C     2.2356290    1.0739723   -2.0731697 
C     0.8942343    1.0432421   -2.5647563 
C     3.2720122    1.5831454   -0.0693263 
C     2.7403778    2.1909695   -1.2795530 
C     2.1973858    1.1075569    2.0901471 
C     2.8605896    2.0507693    1.1978273 
C    -0.2533150    0.9609592    2.5699022 
C     0.9506358    1.7234935    2.5279773 
C    -2.6349612    0.8315260    2.0180783 
C    -1.4792828    1.6323646    2.1622047 
C    -4.1873787   -0.0658083    0.5262973 
C    -3.7717816   -0.1493680   -0.8672362 
C    -3.6203637    1.1483439    1.0242434 
C    -1.9635995    1.0470637   -2.0826900 
C    -3.1322081    1.0586952   -1.2515796 
C    -3.1455597    1.9380083   -0.0740848 
C     0.1706160    2.2901952   -2.4593828 
C    -1.2321135    2.2537848   -2.0837431 
C     2.0023814    3.3807332   -1.1932101 
C     0.7618042    3.4466045   -1.9024583 
C     2.1332246    3.2810647    1.2572927 
C     0.9357077    3.0715483    2.0965621 
C     1.7824013    3.9893459    0.1140066 
C    -1.3951638    2.8842015    1.3810149 
C    -2.1388599    2.8941982    0.1221192 
C    -1.4401246    3.2675522   -1.0801533 
C    -0.2484053    4.0343896   -1.0050633 
C    -0.1858015    3.6256056    1.4345770 
C     0.3403883    4.2721563    0.2282678 
