60 

C     2.2934289   -3.3675640   -0.9028790 
C     1.2631669   -3.2906682   -1.8413489 
C     0.0497096   -3.8886182   -1.3070784 
C     1.6944022   -3.9099618    0.3246547 
C     0.2827476   -4.0475307    0.1101678 
C     2.1375549   -3.0926243    1.3635111 
C     3.0577743   -2.1853772   -0.5857830 
C     3.1094169   -2.1306859    0.8318872 
C     2.8408760   -0.9417668   -1.2840325 
C     0.9201681   -2.0278672   -2.4335551 
C     1.7284197   -0.8660762   -2.2268461 
C    -1.0372293   -3.1081960   -1.7590510 
C    -0.5239483   -1.9329514   -2.4667713 
C    -2.1303862   -2.9316761   -0.9315642 
C    -0.6481253   -3.4257942    1.0326898 
C    -1.9533346   -3.1845787    0.5048310 
C     1.2448923   -2.3372074    2.1806466 
C    -0.1599356   -2.4709449    2.0483941 
C     2.9921278   -0.9073001    1.5278476 
C     1.8288943   -1.0078721    2.3784286 
C     3.2377457    0.2809359   -0.6052784 
C     3.2998519    0.2956319    0.8640947 
C     2.9086051    1.5022669   -1.2448482 
C     1.0899727    0.4021122   -2.5136434 
C     1.8219208    1.5680701   -2.1945388 
C    -1.2075775   -0.6940088   -2.4405663 
C    -0.3800602    0.4938318   -2.6497721 
C    -2.9673663   -1.7669634   -1.0533774 
C    -2.5206876   -0.6086497   -1.7874670 
C    -2.8556625   -2.3539343    1.1833758 
C    -3.6424010   -1.6048979    0.2060873 
C    -0.9973301   -1.3168104    2.4564086 
C    -2.3961701   -1.4050105    2.1680551 
C     1.0338450    0.1368147    2.6130893 
C    -0.4163381    0.0166396    2.6489609 
C     2.8480240    1.4657171    1.5426741 
C     1.6599488    1.3886028    2.3343034 
C     2.8928473    2.7500390   -0.5158328 
C     2.8199431    2.7233081    0.8691183 
C     1.1677381    2.8721379   -2.0606286 
C     1.8043591    3.5950775   -1.0208450 
C    -0.9965615    1.7519385   -2.4927857 
C    -0.2280764    2.9561105   -2.2173195 
C    -2.9943638    0.6972774   -1.3524829 
C    -2.2915214    1.8497340   -1.8148915 
C    -3.8834329   -0.3344720    0.7131931 
C    -3.1497046   -0.2127516    1.9775432 
C    -3.6336282    0.8236484   -0.0555944 
C    -1.2041494    1.2292083    2.3954180 
C    -2.5643984    1.0650982    2.0220574 
C    -3.0736160    1.8070584    0.8646342 
C     0.8753328    2.6104531    2.0895093 
C     1.6245383    3.4747442    1.2724628 
C     1.0294113    4.0626136    0.0988210 
C    -0.5516426    2.5058615    1.9862882 
C    -0.9669624    3.6941013   -1.2475675 
C    -2.2298171    3.0261359   -1.0268714 
C    -2.4030006    2.9038047    0.3860647 
C    -0.3736512    4.0447393    0.0057207 
C    -1.1765845    3.3590475    1.0322818 
