60 

C     1.2888603    3.9723496   -1.0580154 
C     0.0203718    4.2073101   -0.5270217 
C    -0.9585518    3.5625279   -1.4109083 
C     1.1389901    3.0524088   -2.2176291 
C    -0.2309222    2.7340881   -2.3549958 
C     2.1011718    2.0169430   -2.0891147 
C     2.2968487    3.4599259   -0.2352701 
C     2.9082416    2.3238190   -0.9373062 
C     2.0053464    3.0262065    1.0979421 
C    -0.3065005    3.8163341    0.8121437 
C     0.6693229    3.1417653    1.6380567 
C    -2.0019601    3.0374095   -0.6463032 
C    -1.6697747    3.3060025    0.7645040 
C    -2.6352085    1.8113575   -1.0398108 
C    -0.6490088    1.3810293   -2.5768809 
C    -1.9839750    1.0037767   -2.0883374 
C     1.7433737    0.6593817   -2.3388512 
C     0.3733752    0.3507522   -2.7363371 
C     2.5206262   -0.3673284   -1.6516609 
C     3.2409143    1.3250947   -0.0171991 
C     2.7496000    1.7829761    1.2853911 
C     3.1692094   -0.0476274   -0.3894505 
C     2.3263133    0.8243379    2.1769658 
C     0.1854657    2.0491508    2.5201050 
C     1.0397734    0.9474570    2.8186405 
C    -2.1410936    2.4305301    1.7211945 
C    -1.2012981    1.7534952    2.6068431 
C    -3.3739233    1.1391193   -0.0183475 
C    -3.1446442    1.4903911    1.3460519 
C    -3.5626062   -0.2969750   -0.0585487 
C    -2.3590653   -0.3465994   -2.2004869 
C    -3.2266923   -0.9847726   -1.2114902 
C    -0.0355102   -1.0449649   -2.8082383 
C    -1.4273435   -1.3601417   -2.6635900 
C     2.1734579   -1.7243097   -1.8919173 
C     0.8981704   -2.0737514   -2.5050138 
C     2.5522194   -2.7486188   -0.9948201 
C     3.1192080   -1.0388567    0.6888602 
C     2.6096744   -0.5752269    1.9406938 
C     2.8773103   -2.4071011    0.3596471 
C     0.5495026   -0.4030277    3.0208396 
C     1.5730210   -1.3209182    2.6044164 
C    -1.6911447    0.3858622    2.7850077 
C    -2.9075390    0.2607402    2.0627402 
C    -3.1803932   -0.8592870    1.2334588 
C    -0.8212044   -0.7373954    2.8649314 
C    -2.3832850   -2.0432374    1.3223996 
C    -1.1984763   -2.0152541    2.2042615 
C    -2.8200101   -2.3364829   -1.0872219 
C    -1.8071471   -2.6072006   -2.0830658 
C    -2.3569308   -2.8788795    0.1519483 
C     0.4837033   -3.3515187   -1.9273543 
C     1.4973039   -3.7562107   -0.9996382 
C    -0.8638478   -3.5300328   -1.5671236 
C    -1.2162869   -3.7270269   -0.1501202 
C     2.0333664   -3.2232216    1.1896088 
C     1.2302372   -2.6122816    2.1769036 
C    -0.1776144   -2.9614164    1.9559336 
C     1.1568639   -4.0169697    0.3347358 
C    -0.1998861   -3.8559071    0.7978445 
