60 

C     5.0396137   -0.7013082   -0.1687888 
C     4.4973180   -0.6532556    1.1645691 
C     4.1638275    0.6800132    1.4838453 
C     4.8271182    0.6323616   -0.7496908 
C     4.3531176    1.5066396    0.2727981 
C     4.0171199    0.4953889   -1.8983961 
C     4.2189643   -1.6081458   -0.9005158 
C     3.6789609   -0.9491173   -2.0518673 
C     3.4187500   -1.6133158    1.2933069 
C     3.2660645   -2.2430561   -0.0100801 
C     2.2549170   -1.3116204    2.0751782 
C     2.9282493    1.0417292    2.1113681 
C     1.9649410    0.0656700    2.5111420 
C     3.1810902    2.2876937    0.1151785 
C     2.4484547    2.1974862    1.3809565 
C     2.8130964    1.2388710   -2.0549914 
C     2.3737120    2.2134386   -1.0875198 
C     2.3199239   -1.0497321   -2.3642474 
C     1.8026650    0.3198981   -2.5386934 
C     1.9629680   -2.5714032   -0.4731553 
C     1.4445641   -1.9893028   -1.7052567 
C     1.1275564   -2.1051899    1.7978294 
C     0.9939587   -2.7800767    0.5378407 
C    -0.2111318   -1.7845169    2.2605702 
C     0.5557315    0.4833000    2.6753179 
C    -0.5557315   -0.4833000    2.6753179 
C     1.1301651    2.5318819    1.4401266 
C     0.2111318    1.7845169    2.2605702 
C     0.9424264    2.4869305   -1.0051139 
C     0.3982644    2.8901924    0.2429064 
C     0.4465652    0.5774549   -2.4867169 
C    -0.0268631    1.8066553   -1.8679001 
C     0.0268631   -1.8066553   -1.8679001 
C    -0.4465652   -0.5774549   -2.4867169 
C    -0.3982644   -2.8901924    0.2429064 
C    -1.1301651   -2.5318819    1.4401266 
C    -0.9424264   -2.4869305   -1.0051139 
C    -2.4484547   -2.1974862    1.3809565 
C    -1.9649410   -0.0656700    2.5111420 
C    -2.9282493   -1.0417292    2.1113681 
C    -1.1275564    2.1051899    1.7978294 
C    -0.9939587    2.7800767    0.5378407 
C    -2.2549170    1.3116204    2.0751782 
C    -1.4445641    1.9893028   -1.7052567 
C    -1.9629680    2.5714032   -0.4731553 
C    -1.8026650   -0.3198981   -2.5386934 
C    -2.3199239    1.0497321   -2.3642474 
C    -2.3737120   -2.2134386   -1.0875198 
C    -3.1810902   -2.2876937    0.1151785 
C    -2.8130964   -1.2388710   -2.0549914 
C    -4.1638275   -0.6800132    1.4838453 
C    -4.3531176   -1.5066396    0.2727981 
C    -3.4187500    1.6133158    1.2933069 
C    -3.2660645    2.2430561   -0.0100801 
C    -4.4973180    0.6532556    1.1645691 
C    -3.6789609    0.9491173   -2.0518673 
C    -4.0171199   -0.4953889   -1.8983961 
C    -4.8271182   -0.6323616   -0.7496908 
C    -4.2189643    1.6081458   -0.9005158 
C    -5.0396137    0.7013082   -0.1687888 
