60 

C    -1.9950101   -3.8548763    0.2339728 
C    -0.6549366   -4.1714882   -0.1746340 
C     0.2258623   -3.7825256    0.8667426 
C    -1.9665819   -3.1928190    1.5076990 
C    -0.6102194   -3.1029563    1.8946140 
C    -2.6988207   -1.9399228    1.3814466 
C    -2.5219198   -2.9237383   -0.6943992 
C    -3.0998547   -1.8057959    0.0007678 
C    -0.4394277   -3.5870076   -1.4880884 
C    -1.5911717   -2.7073908   -1.7814310 
C     0.8163350   -3.1581848   -1.8260306 
C     1.5396976   -3.3053038    0.5634219 
C     1.9020574   -3.1925325   -0.8359728 
C     2.1150047   -2.3561221    1.4588448 
C    -0.1119900   -1.9366122    2.5737070 
C     1.2819889   -1.7007313    2.4795325 
C    -2.3067383   -0.7851802    2.1017759 
C    -1.0164204   -0.7903877    2.7963659 
C    -2.8125907    0.4491101    1.5941657 
C    -3.1343375   -0.5491667   -0.6291611 
C    -3.2779692    0.5677591    0.2403257 
C    -1.4218896   -1.4091717   -2.3079606 
C    -2.3659793   -0.3619302   -1.8723349 
C     0.9790501   -1.9371764   -2.6119197 
C    -0.0842754   -1.0060314   -2.7950950 
C     2.8429588   -2.2239388   -1.2366116 
C     2.2803183   -1.4555785   -2.3583443 
C     3.0946412   -1.3965025    1.0287802 
C     3.4298432   -1.2992543   -0.3478111 
C     1.8264798   -0.3916230    2.7142766 
C     2.9345778   -0.1841516    1.8060188 
C    -0.4431273    0.4694901    3.0953532 
C     0.9790216    0.6670810    3.0412965 
C    -2.2472538    1.7312498    1.9647912 
C    -1.0670959    1.7306040    2.6968181 
C    -3.0419799    1.9152895   -0.2110173 
C    -2.4475307    2.6765625    0.8809572 
C    -2.1101517    0.9486367   -2.2677465 
C    -2.6054125    2.1126698   -1.5313337 
C     0.2670583    0.3936644   -2.9022796 
C    -0.8148500    1.3327465   -2.8590541 
C     2.5747300   -0.0901990   -2.1998120 
C     3.3890649    0.0202452   -0.9873613 
C     1.5928105    0.8848513   -2.5258202 
C     3.1027603    1.0699372    1.2168991 
C     3.2817057    1.1649900   -0.2238357 
C     1.2479469    2.0107510    2.5368522 
C    -0.0200745    2.6876058    2.3649420 
C     2.2820086    2.1957785    1.6128185 
C    -1.4745296    3.6548590    0.6112863 
C    -0.2075542    3.6124446    1.3334157 
C    -1.7119672    3.1940934   -1.7990095 
C    -0.5966041    2.6862498   -2.6101785 
C    -1.1729595    3.9579546   -0.7653463 
C     1.7199718    2.2091477   -1.8964764 
C     2.5251513    2.3026811   -0.7087434 
C     2.0384913    3.0250996    0.4418926 
C     0.8702694    3.8014822    0.3512738 
C     0.6447405    3.1385905   -2.0175830 
C     0.2866778    3.9866743   -0.9256625 
