60 

C    -1.1645023   -4.5876872   -0.1582888 
C    -0.0564015   -4.6679725   -0.9848341 
C     1.1247183   -4.3168359   -0.1902145 
C    -0.7545981   -4.1811997    1.1883741 
C     0.6934622   -4.0717311    1.1825247 
C    -1.5176714   -3.0415447    1.5261577 
C    -2.1031013   -3.6048609   -0.6882907 
C    -2.4048883   -2.7234147    0.3703135 
C    -0.2202692   -3.6764415   -2.0431128 
C    -1.5271361   -3.0281807   -1.8754792 
C     1.7828430   -3.2728853   -0.8703770 
C     0.9167437   -2.8466587   -2.0064330 
C     2.4882683   -2.2581716   -0.1699481 
C     1.2662884   -2.9902399    1.8524842 
C     2.3362466   -2.2421633    1.2514166 
C    -0.9505223   -1.9309811    2.2551024 
C     0.4396425   -1.9791755    2.5305660 
C    -1.5766831   -0.6286804    2.1882000 
C    -2.7178031   -1.3862195    0.1077079 
C    -2.6426373   -0.4423221    1.2177830 
C    -1.6429270   -1.6428996   -2.0923719 
C    -2.5150531   -0.8620290   -1.2240280 
C     0.8420509   -1.4640736   -2.3562809 
C    -0.4784294   -0.9147148   -2.5990365 
C     2.7611636   -0.9966153   -0.8499499 
C     1.9280815   -0.5739446   -1.9735031 
C     3.3831458    0.0220578   -0.0654354 
C     2.4181839   -0.9726922    1.9408977 
C     1.1921013   -0.7570246    2.6616428 
C     3.0685025    0.0817866    1.3737374 
C    -0.8504018    0.5713962    2.6284337 
C     0.6034632    0.5311422    2.6958662 
C    -1.4757155    1.8276672    2.4616833 
C    -3.1456477    0.8359660    0.9857598 
C    -2.7447490    1.9107349    1.8250964 
C    -2.6565208    0.5613616   -1.4313684 
C    -3.2371709    1.3510083   -0.4001868 
C    -0.5925616    0.4763163   -2.7506069 
C    -1.7476890    1.2075805   -2.3304499 
C     1.8310377    0.8443439   -2.3025962 
C     0.5634488    1.3502942   -2.7378761 
C     3.4487271    1.3418884   -0.5049615 
C     2.6982992    1.7936647   -1.6485398 
C     2.6854679    1.4386115    1.6958561 
C     1.3985519    1.6974002    2.2671430 
C     3.1769189    2.2432177    0.6174893 
C    -0.6920815    3.0262787    2.0585064 
C     0.7016095    2.9263839    1.8471052 
C    -2.7401906    3.1020062    1.0228461 
C    -2.9811336    2.7557340   -0.3459985 
C    -1.5152694    3.7980376    1.1609509 
C    -1.3406711    2.5846674   -2.1388005 
C     0.0937837    2.6656420   -2.4035306 
C    -1.9257033    3.3508251   -1.1273140 
C    -1.0362874    4.0755842   -0.1749748 
C     2.2111711    3.0923893   -1.3216025 
C     2.4481605    3.3173390    0.1276481 
C     1.2291959    3.6972658    0.7174451 
C     0.8997004    3.5090371   -1.6112086 
C     0.3234387    4.0737316   -0.3811389 
