60 

C     0.4321944    4.6182766    0.2761688 
C     1.6477540    4.1577788    0.7188206 
C     1.4168935    3.2602125    1.9070211 
C    -0.5757645    4.1922841    1.2872665 
C     0.0359545    3.1623035    2.1299976 
C    -1.7603273    3.9640965    0.6572230 
C    -0.0947637    4.1981692   -1.0172987 
C    -1.5076707    4.0808597   -0.8128967 
C     0.5904777    3.1405114   -1.7597551 
C     2.4925643    3.4587488   -0.1538043 
C     1.9432657    2.8889383   -1.3574462 
C     2.2382461    2.1125126    1.7728086 
C     3.0237808    2.3218760    0.5923392 
C     1.7037683    0.7980246    2.0502244 
C    -0.5844785    1.8496452    2.2530363 
C     0.2881355    0.6688210    2.3527168 
C    -2.5004746    2.7431431    0.8984894 
C    -1.9248659    1.6820275    1.7141246 
C    -2.2286631    3.0768094   -1.4053354 
C    -3.0167251    2.3856991   -0.3704402 
C    -0.1942488    1.9686517   -2.3010458 
C    -1.6085560    2.0262991   -2.1777798 
C     0.3966207    0.6187613   -2.4619055 
C     2.4768370    1.5441927   -1.4809897 
C     3.1947201    1.2370955   -0.2634083 
C     1.8022762    0.4828677   -2.1392687 
C     2.4004057   -0.3336034    1.4778375 
C     3.1625642   -0.0672272    0.2681854 
C     1.9248659   -1.6820275    1.7141246 
C    -0.2881355   -0.6688210    2.3527168 
C     0.5844785   -1.8496452    2.2530363 
C    -2.4004057    0.3336034    1.4778375 
C    -1.7037683   -0.7980246    2.0502244 
C    -3.1501717    1.0499094   -0.7373636 
C    -2.3367350    0.8040878   -1.9175221 
C    -3.1625642    0.0672272    0.2681854 
C    -0.3966207   -0.6187613   -2.4619055 
C    -1.8022762   -0.4828677   -2.1392687 
C     0.1942488   -1.9686517   -2.3010458 
C     2.3367350   -0.8040878   -1.9175221 
C     3.1501717   -1.0499094   -0.7373636 
C     1.6085560   -2.0262991   -2.1777798 
C     2.5004746   -2.7431431    0.8984894 
C     3.0167251   -2.3856991   -0.3704402 
C     2.2286631   -3.0768094   -1.4053354 
C     1.7603273   -3.9640965    0.6572230 
C     1.5076707   -4.0808597   -0.8128967 
C    -0.0359545   -3.1623035    2.1299976 
C     0.5757645   -4.1922841    1.2872665 
C    -2.2382461   -2.1125126    1.7728086 
C    -1.4168935   -3.2602125    1.9070211 
C    -3.1947201   -1.2370955   -0.2634083 
C    -2.4768370   -1.5441927   -1.4809897 
C    -3.0237808   -2.3218760    0.5923392 
C    -0.5904777   -3.1405114   -1.7597551 
C     0.0947637   -4.1981692   -1.0172987 
C    -0.4321944   -4.6182766    0.2761688 
C    -1.6477540   -4.1577788    0.7188206 
C    -1.9432657   -2.8889383   -1.3574462 
C    -2.4925643   -3.4587488   -0.1538043 
