60 

C     1.5438770    4.8685611   -0.6947758 
C     0.2743171    5.2967228   -0.1701952 
C     0.1963670    4.9587758    1.1841905 
C     2.2099611    4.1139334    0.3807812 
C     1.3925441    4.1635681    1.5465918 
C     2.5330955    2.7984499   -0.1050542 
C     1.2257709    3.8718235   -1.6604319 
C     1.9655767    2.6645511   -1.4497262 
C    -0.8183213    4.5402448   -0.8418149 
C    -0.2281689    3.6837834   -1.8018860 
C    -0.9709785    4.1343893    1.4299703 
C    -1.6743037    3.9396467    0.1656734 
C     0.9190953    2.9522348    2.1486677 
C    -0.5561252    2.9646399    2.1115744 
C     2.3857971    1.6601269    0.7151407 
C     1.5146457    1.6968344    1.8707359 
C     2.4757249    0.3989541    0.0482858 
C     1.4788706    1.4232654   -1.9059170 
C     2.0628576    0.2656827   -1.3078507 
C    -0.7701993    2.3800808   -2.0579546 
C     0.0988444    1.2534617   -2.3556332 
C    -2.2592963    2.7031837   -0.0902882 
C    -2.0175939    2.0584710   -1.3906326 
C    -1.2890174    1.7483533    1.9789364 
C    -2.3645763    1.7414270    1.0201506 
C     0.7894260    0.4615802    2.1950416 
C    -0.6464205    0.4883348    2.2989238 
C     2.4248016   -0.7710548    0.8691617 
C     1.4384715   -0.7938275    1.9294640 
C     2.8101601   -1.9569828    0.2354474 
C     1.7280067   -1.0568464   -1.7874788 
C     2.4643075   -2.1093302   -1.2056102 
C    -0.4347690   -0.1020773   -2.4552818 
C     0.4193875   -1.2958502   -2.3205913 
C    -2.5533174    0.7864656   -1.5953528 
C    -1.8216153   -0.2735019   -2.2425092 
C    -2.9943709    0.5211629    0.7679457 
C    -3.3627292    0.1699152   -0.5768588 
C    -1.3691142   -0.7670067    2.1376825 
C    -2.6163728   -0.6955760    1.4493839 
C     0.7920290   -2.0751634    2.2064414 
C    -0.6721941   -2.0505394    2.2197741 
C     2.5749718   -3.1858497    0.8616739 
C     1.4902293   -3.2797501    1.8297287 
C     2.0957154   -3.4486778   -1.4156625 
C     2.3886995   -4.1908340   -0.1794540 
C    -0.1408111   -2.6478629   -2.1495357 
C     0.7355408   -3.7325529   -1.8018643 
C    -2.3351190   -1.5454169   -1.7534425 
C    -3.2840262   -1.2329741   -0.7119721 
C    -3.0133525   -1.7959468    0.5860494 
C    -1.5413030   -2.7097383   -1.6846018 
C    -1.3342406   -3.2049312    1.6706282 
C    -2.3441391   -2.9810375    0.6481735 
C    -1.8419026   -3.6114248   -0.5845145 
C     0.7577209   -4.4738686    1.4410924 
C     1.3094710   -4.9835418    0.1465815 
C     0.2843954   -4.7981668   -0.8732690 
C    -0.6092195   -4.3543254    1.2705610 
C    -0.9170813   -4.5839685   -0.1942935 
