60 

C     1.3562711   -3.6611172    1.4774599 
C     1.6058496   -3.9440089    0.1297352 
C     0.3373611   -4.2552090   -0.5258553 
C    -0.0881815   -3.7342795    1.6869253 
C    -0.7097016   -4.1576008    0.4505030 
C    -0.4905469   -2.5349650    2.3044227 
C     1.8398791   -2.4391761    2.0567965 
C     0.7061387   -1.7235430    2.6094861 
C     2.8024719   -1.7008316    1.3740396 
C     2.3278171   -2.9978369   -0.6796920 
C     3.0485762   -1.9895140   -0.0428515 
C     0.2717630   -3.4713140   -1.7179160 
C     1.4712645   -2.6439420   -1.8117294 
C    -0.9592960   -2.9280546   -2.1222275 
C    -1.9192680   -3.5454479    0.0782476 
C    -2.0933098   -3.1400755   -1.2813139 
C    -1.7255904   -1.8794124    1.9440399 
C    -2.4970406   -2.4797905    0.9054925 
C    -1.8394970   -0.4473755    2.2218633 
C     0.6630077   -0.3201765    2.6638682 
C    -0.6630077    0.3201765    2.6638682 
C     2.8561104   -0.2767538    1.5390106 
C     1.8394970    0.4473755    2.2218633 
C     3.2354974   -0.7357839   -0.7033467 
C     3.4077208    0.2811119    0.3240165 
C     1.4121768   -1.3121729   -2.2886564 
C     2.4642448   -0.3982407   -1.8590610 
C    -1.0365055   -1.5532071   -2.5984006 
C     0.1018920   -0.7324042   -2.6806206 
C    -2.9254277   -1.9609813   -1.3266020 
C    -3.2588619   -1.6132490    0.0204862 
C    -2.3165285   -0.9888279   -2.1481202 
C    -2.8561104    0.2767538    1.5390106 
C    -3.4077208   -0.2811119    0.3240165 
C    -2.8024719    1.7008316    1.3740396 
C    -0.7061387    1.7235430    2.6094861 
C    -1.8398791    2.4391761    2.0567965 
C     1.7255904    1.8794124    1.9440399 
C     0.4905469    2.5349650    2.3044227 
C     3.2588619    1.6132490    0.0204862 
C     2.4970406    2.4797905    0.9054925 
C     2.3165285    0.9888279   -2.1481202 
C     2.9254277    1.9609813   -1.3266020 
C    -0.1018920    0.7324042   -2.6806206 
C     1.0365055    1.5532071   -2.5984006 
C    -2.4642448    0.3982407   -1.8590610 
C    -3.2354974    0.7357839   -0.7033467 
C    -3.0485762    1.9895140   -0.0428515 
C    -1.4121768    1.3121729   -2.2886564 
C    -2.3278171    2.9978369   -0.6796920 
C    -1.4712645    2.6439420   -1.8117294 
C    -1.3562711    3.6611172    1.4774599 
C     0.0881815    3.7342795    1.6869253 
C    -1.6058496    3.9440089    0.1297352 
C     1.9192680    3.5454479    0.0782476 
C     2.0933098    3.1400755   -1.2813139 
C     0.9592960    2.9280546   -2.1222275 
C    -0.2717630    3.4713140   -1.7179160 
C     0.7097016    4.1576008    0.4505030 
C    -0.3373611    4.2552090   -0.5258553 
