60 

C    -0.1934162   -4.3256583    0.5563512 
C    -1.4380621   -3.9967692   -0.0135490 
C    -2.2020898   -3.2674848    0.9756389 
C    -0.0812689   -3.6038267    1.8527447 
C    -1.2681631   -2.8731385    2.0231023 
C     1.1767463   -2.9262983    1.8700065 
C     0.9767031   -4.0728623   -0.1565065 
C     1.9185782   -3.3674199    0.7318382 
C     0.9696518   -3.3939921   -1.4125104 
C    -1.5102301   -3.2780855   -1.2651701 
C    -0.2911779   -2.9621104   -1.9723385 
C    -2.9255781   -2.2718014    0.3036914 
C    -2.5348548   -2.2542918   -1.1076476 
C    -3.1241564   -1.0504190    0.9444317 
C    -1.2026747   -1.4794768    2.4560375 
C    -2.3007011   -0.6726950    2.0869300 
C     1.2950429   -1.5392058    2.2839734 
C     0.0866446   -0.8172089    2.6608981 
C     2.4519444   -0.8080926    1.8009039 
C     2.6462164   -2.4526976   -0.0316118 
C     2.0893477   -2.4632056   -1.3790986 
C     3.1086161   -1.2435646    0.5546766 
C     2.1065206   -1.2511435   -2.1228963 
C    -0.2811094   -1.7137219   -2.6809697 
C     0.9124056   -0.9002969   -2.8088433 
C    -2.5058516   -1.0165419   -1.7976466 
C    -1.3990324   -0.8203651   -2.6769502 
C    -3.4158132    0.1372614    0.2078490 
C    -3.1099892    0.1906956   -1.1900031 
C    -2.2717721    0.7650870    2.1367173 
C    -3.1267554    1.2630445    1.0757145 
C     0.1132463    0.6488737    2.7484382 
C    -1.0979397    1.4526745    2.5183046 
C     2.5267341    0.5737879    2.1327094 
C     1.3658132    1.2887574    2.5917265 
C     3.3029723    1.4781041    1.3323489 
C     3.5538013   -0.2533706   -0.3666304 
C     2.9438473   -0.1925545   -1.6740565 
C     3.7612059    1.0880963    0.0659289 
C     2.5957907    1.2099503   -1.9050779 
C     3.1948232    2.0038988   -0.8961816 
C     0.5370462    0.4892563   -2.9686761 
C    -0.8962332    0.5169641   -2.9589857 
C     1.3003151    1.5560846   -2.4198206 
C    -2.7502247    1.4834222   -1.6978030 
C    -1.5594098    1.6364064   -2.5298896 
C    -2.9321124    2.5394955    0.5488799 
C    -2.8032139    2.6358313   -0.8788535 
C    -0.9762893    2.8221279    2.0351163 
C    -1.9180101    3.3627421    1.1303167 
C     1.4632675    2.6630869    2.0519470 
C     2.6043940    2.7418302    1.2180101 
C     2.4277813    2.9979733   -0.1883812 
C     0.3264008    3.3452132    1.6762737 
C     0.5984862    2.7492906   -1.8793331 
C    -0.8069755    2.8196609   -2.0930850 
C    -1.6599265    3.5052288   -1.1701304 
C    -1.1551958    3.9879120    0.0368838 
C     1.1537399    3.4245091   -0.6837000 
C     0.2301447    3.8910324    0.3179571 
