60 

C     4.0446288    0.8540047    0.7793615 
C     3.3495028    1.4419120    1.8452190 
C     2.5128537    2.5057231    1.2816537 
C     3.6396478    1.5418262   -0.4511335 
C     2.6399148    2.5219293   -0.1386760 
C     3.4105575    0.5799786   -1.4591123 
C     3.9547354   -0.5520024    0.5410845 
C     3.7238168   -0.7390701   -0.8880322 
C     3.2104114   -1.3448865    1.4482922 
C     2.5051742    0.6766190    2.6964985 
C     2.4661083   -0.7178634    2.5263702 
C     1.2515789    2.5092823    1.9136878 
C     1.2174003    1.3941555    2.8333682 
C     0.1002297    2.8944142    1.1722081 
C     1.4618387    2.6690754   -0.9447759 
C     0.2233534    3.0737078   -0.2695433 
C     2.3203832    0.7600067   -2.3770862 
C     1.3933955    1.8842577   -2.1786716 
C     1.8098680   -0.4368662   -2.9910667 
C     3.0252406   -1.8508921   -1.3532241 
C     2.1994943   -1.7005711   -2.4970558 
C     2.3642287   -2.4133959    0.9429979 
C     2.2913070   -2.7015510   -0.4094488 
C     1.1946333   -1.4115246    2.6773298 
C     1.1438248   -2.4774289    1.7281004 
C     0.0050364    0.7337218    3.0914180 
C    -0.0050364   -0.7337218    3.0914180 
C    -1.1438248    2.4774289    1.7281004 
C    -1.1946333    1.4115246    2.6773298 
C    -2.3642287    2.4133959    0.9429979 
C    -0.9954272    3.0305784   -1.0108856 
C    -2.2913070    2.7015510   -0.4094488 
C     0.1327548    1.8154589   -2.8390890 
C    -0.9858461    2.4973941   -2.3177929 
C     0.3938795   -0.5571047   -3.3519960 
C    -0.3938795    0.5571047   -3.3519960 
C     0.9858461   -2.4973941   -2.3177929 
C     0.9954272   -3.0305784   -1.0108856 
C    -0.1327548   -1.8154589   -2.8390890 
C    -0.1002297   -2.8944142    1.1722081 
C    -0.2233534   -3.0737078   -0.2695433 
C    -1.2174003   -1.3941555    2.8333682 
C    -1.2515789   -2.5092823    1.9136878 
C    -2.4661083    0.7178634    2.5263702 
C    -3.2104114    1.3448865    1.4482922 
C    -2.5051742   -0.6766190    2.6964985 
C    -3.9547354    0.5520024    0.5410845 
C    -3.0252406    1.8508921   -1.3532241 
C    -2.1994943    1.7005711   -2.4970558 
C    -1.8098680    0.4368662   -2.9910667 
C    -3.7238168    0.7390701   -0.8880322 
C    -1.3933955   -1.8842577   -2.1786716 
C    -1.4618387   -2.6690754   -0.9447759 
C    -2.3203832   -0.7600067   -2.3770862 
C    -3.4105575   -0.5799786   -1.4591123 
C    -2.5128537   -2.5057231    1.2816537 
C    -3.3495028   -1.4419120    1.8452190 
C    -4.0446288   -0.8540047    0.7793615 
C    -2.6399148   -2.5219293   -0.1386760 
C    -3.6396478   -1.5418262   -0.4511335 
