60 

C     4.6541625    0.7205713    1.2166877 
C     4.6541625   -0.7205713    1.2166877 
C     4.4149566   -1.1787045   -0.1332416 
C     4.4149566    1.1787045   -0.1332416 
C     4.2811322    0.0000000   -0.9930746 
C     3.3545964    2.1264240   -0.1205612 
C     3.5905830    1.1841720    2.0328501 
C     2.8215347    2.1192318    1.2476878 
C     3.5905830   -1.1841720    2.0328501 
C     2.8612820    0.0000000    2.4632764 
C     3.3545964   -2.1264240   -0.1205612 
C     2.8215347   -2.1192318    1.2476878 
C     2.4301034   -2.2134698   -1.2204586 
C     3.2854839    0.0000000   -1.9693735 
C     2.4538268   -1.1754737   -2.2133842 
C     2.4301034    2.2134698   -1.2204586 
C     2.4538268    1.1754737   -2.2133842 
C     1.1760251    2.8033984   -0.9453996 
C     1.4397921    2.2598319    1.4608841 
C     0.7096849    2.8869278    0.4227337 
C     1.4244184    0.0000000    2.5013551 
C     0.7093111    1.2402796    2.2487973 
C     1.4397921   -2.2598319    1.4608841 
C     0.7093111   -1.2402796    2.2487973 
C     1.1760251   -2.8033984   -0.9453996 
C     0.7096849   -2.8869278    0.4227337 
C     0.0000000   -2.5409348   -1.7317291 
C     1.2313208   -0.7338855   -2.8014040 
C     1.2313208    0.7338855   -2.8014040 
C     0.0000000   -1.4435877   -2.6608372 
C     0.0000000    2.5409348   -1.7317291 
C     0.0000000    1.4435877   -2.6608372 
C    -0.7096849    2.8869278    0.4227337 
C    -1.1760251    2.8033984   -0.9453996 
C    -0.7093111    1.2402796    2.2487973 
C    -1.4397921    2.2598319    1.4608841 
C    -0.7093111   -1.2402796    2.2487973 
C    -1.4244184    0.0000000    2.5013551 
C    -0.7096849   -2.8869278    0.4227337 
C    -1.1760251   -2.8033984   -0.9453996 
C    -1.4397921   -2.2598319    1.4608841 
C    -2.4301034   -2.2134698   -1.2204586 
C    -1.2313208   -0.7338855   -2.8014040 
C    -1.2313208    0.7338855   -2.8014040 
C    -2.4538268   -1.1754737   -2.2133842 
C    -2.4301034    2.2134698   -1.2204586 
C    -2.4538268    1.1754737   -2.2133842 
C    -3.2854839    0.0000000   -1.9693735 
C    -2.8215347    2.1192318    1.2476878 
C    -3.3545964    2.1264240   -0.1205612 
C    -2.8612820    0.0000000    2.4632764 
C    -3.5905830    1.1841720    2.0328501 
C    -2.8215347   -2.1192318    1.2476878 
C    -3.3545964   -2.1264240   -0.1205612 
C    -3.5905830   -1.1841720    2.0328501 
C    -4.2811322    0.0000000   -0.9930746 
C    -4.4149566    1.1787045   -0.1332416 
C    -4.6541625    0.7205713    1.2166877 
C    -4.4149566   -1.1787045   -0.1332416 
C    -4.6541625   -0.7205713    1.2166877 
