60 

C    -3.4107719   -1.4633159    1.6405152 
C    -3.6015441   -0.1236957    1.9725879 
C    -2.5311438    0.2650291    2.9048907 
C    -2.2337146   -1.9433462    2.3726435 
C    -1.6640905   -0.8657969    3.1162086 
C    -1.4330224   -2.6850648    1.4860924 
C    -3.2744625   -1.8720811    0.2721405 
C    -2.0716422   -2.6920879    0.1746560 
C    -3.5345096   -0.9403564   -0.7436418 
C    -3.7040616    0.8709492    0.9479501 
C    -3.7758294    0.4581444   -0.3979457 
C    -1.9930436    1.4847363    2.4748736 
C    -2.7667489    1.9332503    1.3041044 
C    -0.5864347    1.7361692    2.5896317 
C    -0.2558156   -0.6864547    3.1657806 
C     0.2558156    0.6864547    3.1657806 
C    -0.0118106   -2.6521611    1.6331074 
C     0.5864347   -1.7361692    2.5896317 
C     0.7291125   -3.0271559    0.4740380 
C    -1.2856046   -2.7172140   -0.9964928 
C     0.1080627   -3.0316430   -0.8133221 
C    -2.7668450   -0.9800087   -1.9765954 
C    -1.6820800   -1.9037747   -2.1540033 
C    -3.1480628    1.2563713   -1.4359107 
C    -2.6656783    0.3730912   -2.4801139 
C    -2.1234014    2.6489784    0.3126737 
C    -2.3605871    2.3595049   -1.0858824 
C     0.0118106    2.6521611    1.6331074 
C    -0.7291125    3.0271559    0.4740380 
C     1.4330224    2.6850648    1.4860924 
C     1.6640905    0.8657969    3.1162086 
C     2.2337146    1.9433462    2.3726435 
C     1.9930436   -1.4847363    2.4748736 
C     2.5311438   -0.2650291    2.9048907 
C     2.1234014   -2.6489784    0.3126737 
C     2.7667489   -1.9332503    1.3041044 
C     1.1125121   -2.6336043   -1.7865993 
C     2.3605871   -2.3595049   -1.0858824 
C    -0.6671471   -1.5461338   -3.1061648 
C     0.7434712   -1.8953180   -2.8952271 
C    -1.5709109    0.7458430   -3.2685281 
C    -0.6809645   -0.2650062   -3.7014670 
C    -1.1125121    2.6336043   -1.7865993 
C    -0.1080627    3.0316430   -0.8133221 
C    -0.7434712    1.8953180   -2.8952271 
C     2.0716422    2.6920879    0.1746560 
C     1.2856046    2.7172140   -0.9964928 
C     3.4107719    1.4633159    1.6405152 
C     3.6015441    0.1236957    1.9725879 
C     3.7040616   -0.8709492    0.9479501 
C     3.2744625    1.8720811    0.2721405 
C     3.1480628   -1.2563713   -1.4359107 
C     3.7758294   -0.4581444   -0.3979457 
C     3.5345096    0.9403564   -0.7436418 
C     1.5709109   -0.7458430   -3.2685281 
C     0.6809645    0.2650062   -3.7014670 
C     0.6671471    1.5461338   -3.1061648 
C     1.6820800    1.9037747   -2.1540033 
C     2.6656783   -0.3730912   -2.4801139 
C     2.7668450    0.9800087   -1.9765954 
