60 

C     1.0439500    3.9098146   -0.7445154 
C     1.9757482    3.5236352    0.2315935 
C     1.2914403    3.4801456    1.5329961 
C    -0.2197632    4.1385802   -0.0788224 
C    -0.0871798    3.7350220    1.3155276 
C    -1.2433791    3.5964053   -0.8758356 
C     0.8112001    3.0745011   -1.8930713 
C    -0.6232629    2.9372917   -2.0425346 
C     1.6823507    1.9691265   -2.1595454 
C     2.7523074    2.3532739    0.0853076 
C     2.7259968    1.6295285   -1.1618872 
C     1.7296705    2.3057776    2.1923558 
C     2.6970055    1.6183030    1.3507394 
C     0.7999670    1.5147836    2.8807849 
C    -1.0798810    2.8425004    1.8985935 
C    -0.6113430    1.7874751    2.7443964 
C    -2.3480297    2.9801032   -0.2516387 
C    -2.2568226    2.5575731    1.1424473 
C    -3.0545475    1.9700043   -0.9542477 
C    -1.1916598    1.7436373   -2.5786076 
C    -2.4570464    1.2856424   -2.0453130 
C     1.1201959    0.8808886   -2.8917112 
C    -0.2978369    0.7502050   -3.0647561 
C     1.6723404   -0.4523691   -2.8395966 
C     3.1948118    0.3069343   -1.0868677 
C     2.7762468   -0.7205900   -2.0368428 
C     2.8632577    0.2192743    1.4009704 
C     3.3622573   -0.3699980    0.1985757 
C     0.9923773    0.0864989    2.9855776 
C     2.0104406   -0.6061665    2.2825393 
C    -1.3053934    0.5106402    2.8479208 
C    -0.3218142   -0.4946290    3.1552842 
C    -2.9372720    1.2648993    1.2454122 
C    -3.5023921    0.9660241   -0.0139644 
C    -2.4296412    0.1855299    2.0479323 
C    -2.7229513   -0.1343100   -1.8866578 
C    -3.3415946   -0.3232065   -0.5896023 
C    -0.6269819   -0.6680224   -3.0323748 
C     0.5893211   -1.4229758   -2.9172582 
C    -1.8316733   -1.1187851   -2.3994464 
C     0.6351803   -2.6737402   -2.2195639 
C     2.8634244   -1.9932338   -1.4013756 
C     3.1978249   -1.7505236   -0.0171370 
C     1.8160968   -2.9478318   -1.4316441 
C     1.7794581   -2.0322266    1.9784942 
C     2.4003513   -2.5952508    0.8162395 
C     1.6794307   -3.4930414   -0.0721321 
C    -0.5592684   -1.8143379    2.8661885 
C     0.5429236   -2.6497373    2.3913869 
C    -2.6141887   -1.2115546    1.6009818 
C    -3.0460176   -1.4560946    0.2141270 
C    -1.7852799   -2.2068380    2.2018223 
C    -1.8225560   -2.3849314   -1.7583425 
C    -0.6171360   -3.2132104   -1.7414981 
C    -2.5267421   -2.5871127   -0.5018912 
C     0.4629831   -4.0447396    0.3291053 
C    -0.0373525   -3.6942297    1.6326988 
C    -1.4702847   -3.4246540    1.5158422 
C    -0.6567748   -4.0167743   -0.5803772 
C    -1.8424924   -3.6229040    0.1832180 
