60 

C    -2.2469248   -4.1928523    0.5392959 
C    -1.3495079   -4.7255398   -0.4369554 
C    -0.0320383   -4.6188199    0.0829116 
C    -1.4324813   -3.6807780    1.6523223 
C    -0.0546882   -3.9584785    1.3820182 
C    -1.7870188   -2.3163602    1.9536325 
C    -2.7820951   -3.0071643   -0.0206431 
C    -2.7534029   -1.9252843    0.9316197 
C    -1.3177133   -3.8198081   -1.5917201 
C    -2.2276381   -2.7513701   -1.3552359 
C     0.8740066   -4.1168397   -0.9312071 
C     0.0359407   -3.4795462   -1.9441852 
C     2.0192783   -3.4787910   -0.5059678 
C     0.9626049   -3.0016262    1.7238253 
C     2.1125111   -2.9589561    0.8839033 
C    -0.8420676   -1.3571307    2.4128116 
C     0.5662916   -1.7474070    2.4100532 
C    -1.2193522    0.0497266    2.3156369 
C    -2.7553888   -0.6306885    0.4773255 
C    -2.2983002    0.3818250    1.4162862 
C    -1.9116836   -1.4154918   -1.7200061 
C    -2.5239834   -0.3551610   -0.9494004 
C     0.3700192   -2.1605494   -2.4009579 
C    -0.6401838   -1.1044203   -2.3735581 
C     2.5885494   -2.4838551   -1.3493393 
C     1.7413646   -1.7598840   -2.2378058 
C     2.9518366   -1.7888090    0.8323125 
C     3.2841262   -1.5139537   -0.5404938 
C     1.4870243   -0.6871466    2.4689138 
C     2.6968382   -0.6990601    1.6710845 
C    -0.2753871    1.1217152    2.5783667 
C     1.0794215    0.6975074    2.6271289 
C    -0.5728151    2.5280999    2.2474067 
C    -2.5175358    1.6885140    1.0250452 
C    -1.8289659    2.8304749    1.6097773 
C    -2.3353461    0.9820141   -1.3248085 
C    -2.7767797    1.9872990   -0.3780418 
C    -0.2474210    0.2825419   -2.4599598 
C    -1.2243465    1.3204644   -2.2056592 
C     2.0956535   -0.3617225   -2.1201618 
C     3.0895131   -0.2189932   -1.0601056 
C     1.1643851    0.6598095   -2.3256606 
C     2.9245996    0.6427620    1.2085308 
C     2.0850237    1.5137988    1.9944262 
C     3.0263063    0.9127431   -0.1978421 
C     0.5210409    3.4159635    1.8891061 
C     1.7946437    2.7822180    1.5537133 
C     0.3442635    4.4831589    0.9679369 
C    -1.9923593    3.9205428    0.7082839 
C    -2.4859651    3.3315395   -0.5666727 
C    -0.9060346    4.7565815    0.3646585 
C    -0.8112527    2.6804041   -2.2576728 
C    -1.5962043    3.7403879   -1.6111139 
C    -0.7250495    4.7329079   -1.1037737 
C     1.5244875    1.9995622   -1.8617196 
C     2.4305813    2.1196924   -0.7228376 
C     2.1693368    3.1847643    0.2075446 
C     1.3281661    4.2587948   -0.1308296 
C     0.5830778    3.0332333   -2.1010114 
C     0.6190391    4.2774403   -1.3505312 
