60 

C    -0.5373332    4.1540080   -0.7173681 
C    -1.7528798    3.8262227   -0.1148344 
C    -2.4883298    2.9453027   -1.0134578 
C    -0.4597738    3.4071744   -1.9718239 
C    -1.6325508    2.5880380   -2.1070027 
C     0.8000242    2.8070405   -2.0227582 
C     0.7041273    3.9998281   -0.0088138 
C     1.5982510    3.2370333   -0.8615126 
C     0.6630678    3.6967050    1.3710218 
C    -1.7649956    3.2206623    1.1976196 
C    -0.5905735    3.2006043    1.9463464 
C    -3.0776119    1.9198696   -0.2358649 
C    -2.5764955    2.0125206    1.1254580 
C    -3.2526604    0.6657979   -0.8151655 
C    -1.5139752    1.1982841   -2.5050412 
C    -2.5061070    0.3092348   -2.0050194 
C     0.9622139    1.4810075   -2.5751989 
C    -0.2055748    0.6286688   -2.8204970 
C     2.2169895    0.8827578   -2.3095302 
C     2.5731934    2.3524470   -0.3209926 
C     2.9634296    1.2357259   -1.1114119 
C     1.7094077    2.8829135    1.9129353 
C     2.6361693    2.1899563    1.1116276 
C    -0.2770595    1.9893742    2.7188479 
C     1.1227723    1.8944933    2.7927435 
C    -2.2718273    0.8116909    1.8451269 
C    -1.0500791    0.7801595    2.6353783 
C    -3.3358201   -0.4921206    0.0091504 
C    -2.8322798   -0.4427253    1.3448296 
C    -2.3347975   -1.1190644   -1.9867919 
C    -3.0267939   -1.6353373   -0.8301989 
C    -0.0397040   -0.8329625   -2.8338045 
C    -1.1221156   -1.7204153   -2.4291625 
C     2.3795540   -0.5025948   -2.5127914 
C     1.2923106   -1.3619787   -2.7255883 
C     3.4614313    0.0003793   -0.5271264 
C     3.2027628   -1.0395183   -1.4441146 
C     2.8266396    0.8295008    1.6746962 
C     1.8202569    0.6516370    2.6727366 
C     3.2428981   -0.2611614    0.8782870 
C    -0.3530423   -0.4986610    2.8600927 
C     1.1107257   -0.5613720    2.8116322 
C    -2.3192187   -1.6700525    1.8758344 
C    -1.0565646   -1.6894324    2.5756739 
C    -2.6770970   -2.8600038   -0.2640023 
C    -2.4241246   -2.8903233    1.1416794 
C    -0.8247701   -3.0429452   -1.8864839 
C    -1.6371446   -3.6199024   -0.8981716 
C     1.5790402   -2.6041490   -1.9773887 
C     2.7071946   -2.3249854   -1.0813622 
C     0.5626389   -3.4227589   -1.5683543 
C     2.7756422   -1.5630342    1.2583968 
C     1.7404490   -1.7106720    2.2333687 
C     2.5844036   -2.6513338    0.2741374 
C    -0.3722735   -2.9564086    2.2442492 
C    -1.2403266   -3.7068103    1.3900911 
C    -0.7671580   -4.1881172    0.1575769 
C     0.5873231   -4.0237751   -0.2310948 
C     0.9898721   -2.9131216    1.9446723 
C     1.5082692   -3.4933012    0.7085196 
