60 

C     0.6804545   -4.8803612   -0.5751520 
C     1.8322431   -4.0896757   -0.3495139 
C     1.9014923   -3.7176768    1.0330591 
C    -0.1173316   -4.8254042    0.6542285 
C     0.6114074   -4.1059725    1.6399106 
C    -1.4042666   -4.3287116    0.3234380 
C    -0.0937485   -4.1975891   -1.5964384 
C    -1.4052856   -3.9943112   -1.1341996 
C     1.8455351   -2.9892241   -1.3119795 
C     0.6179629   -3.0294841   -2.0825319 
C     2.3912137   -1.7432878   -0.9730406 
C     2.1872699   -2.3951029    1.3894969 
C     2.6563516   -1.4449097    0.4229073 
C     0.0750659   -2.9414620    2.2680815 
C     1.1100989   -1.9179600    2.2537881 
C    -1.9867258   -3.2302606    0.9955507 
C    -1.2604888   -2.4749779    2.0060046 
C    -2.0702931   -2.7664010   -1.3305902 
C    -2.6382505   -2.4324340   -0.0372100 
C    -0.0593177   -1.8000930   -2.3930100 
C    -1.4736377   -1.6742956   -2.0657478 
C     2.0448689   -0.6287725   -1.8243127 
C     0.7435992   -0.5898658   -2.4574603 
C     2.7008428    0.5776377   -1.5291997 
C     2.7239750   -0.0794486    0.8393799 
C     3.0656165    0.8769915   -0.1386732 
C     0.8546536   -0.5484380    2.4244469 
C     1.8872253    0.3663490    1.9610967 
C    -1.5458407   -1.0468361    2.1816061 
C    -0.5146170   -0.0845847    2.5512863 
C    -3.0147132   -1.1563988    0.2230609 
C    -2.6270797   -0.4864179    1.4450197 
C    -2.0291371   -0.3411884   -1.8829690 
C    -2.9690456   -0.1642294   -0.8219855 
C     0.1226036    0.7134502   -2.6588871 
C    -1.3015054    0.8467169   -2.3403752 
C     2.2640938    1.7807883   -2.0921404 
C     0.9392101    1.8879105   -2.6013448 
C     2.9228768    2.2942516    0.0710039 
C     2.4969831    2.8789551   -1.1649852 
C     1.6783292    1.7299755    2.1408955 
C     2.3006991    2.7384651    1.2651563 
C    -0.7657601    1.3506837    2.5144335 
C     0.3704901    2.2175419    2.5335634 
C    -2.7900762    0.9214173    1.2293873 
C    -3.1152923    1.0948856   -0.1800361 
C    -1.9912892    1.8859808    1.8886415 
C    -1.7778931    2.1311213   -1.9612304 
C    -2.7126208    2.2437528   -0.8436901 
C     0.4330251    3.1896267   -2.1639260 
C     1.4173599    3.7931698   -1.2349951 
C    -0.9249176    3.3178134   -1.9034931 
C     1.4595233    3.8673258    1.2199076 
C     0.2847714    3.5802516    2.0737545 
C     0.9750917    4.4070661   -0.0209547 
C    -1.9938951    3.2170178    1.3174663 
C    -2.3675286    3.3609550   -0.0589911 
C    -1.3447686    4.1309692   -0.7729223 
C    -0.8577788    4.0788978    1.4818706 
C    -0.4418290    4.6258074    0.1535434 
