60 

C    -0.3561118   -4.4511097    0.9465766 
C    -0.6054565   -3.6497108    2.0500635 
C     0.6500081   -2.9914764    2.4271887 
C     1.0874466   -4.3899354    0.6446670 
C     1.6619473   -3.3415154    1.4644226 
C     1.2165282   -4.3294408   -0.7465423 
C    -1.0894083   -4.2263218   -0.2955908 
C    -0.1343790   -4.2024284   -1.3555062 
C    -2.1063320   -3.2497572   -0.3077886 
C    -1.6373211   -2.6438018    2.0508594 
C    -2.4499993   -2.5089106    0.9095910 
C     0.3635049   -1.6652635    2.7585414 
C    -1.0877775   -1.4342710    2.6210531 
C     1.2548511   -0.6171189    2.4049738 
C     2.4022597   -2.2630088    0.8610928 
C     2.2807405   -0.9174057    1.4230182 
C     2.0543998   -3.3757365   -1.3459577 
C     2.6498987   -2.3421779   -0.5612093 
C    -0.0895491   -3.1315019   -2.2991402 
C     1.2787863   -2.7027450   -2.3914513 
C    -2.1852702   -2.2890885   -1.3976401 
C    -1.1113208   -2.1152623   -2.3261447 
C    -2.9137925   -1.1995654    0.5432842 
C    -2.8811165   -1.1282292   -0.9030757 
C    -1.5710829   -0.1544724    2.3111102 
C    -2.6075473   -0.0283026    1.2866072 
C     0.7634428    0.7318344    2.5957693 
C    -0.6857380    0.9792142    2.5742559 
C     1.6150866    1.7881345    2.2390773 
C     2.7514571    0.2183703    0.6662894 
C     2.6268667    1.4994110    1.2355443 
C     2.5675303   -1.1203377   -1.3459898 
C     1.6128014   -1.3321860   -2.4123957 
C     2.7124173    0.1384959   -0.7911158 
C    -0.7441575   -0.7347753   -2.7152837 
C     0.6557141   -0.3182500   -2.7010899 
C    -2.7411679    0.0895962   -1.5227103 
C    -1.6786642    0.2941441   -2.4832870 
C    -2.7879487    1.2617669    0.6503610 
C    -2.9002432    1.3087330   -0.7767859 
C    -1.1333143    2.2690779    2.2530679 
C    -2.2362345    2.4204620    1.2893375 
C     1.1570486    3.1573609    2.0552220 
C    -0.2362742    3.4071447    2.0900875 
C     2.7423563    2.6524985    0.4212942 
C     1.9503787    3.7381759    0.9947198 
C     2.1925618    1.2709089   -1.5449859 
C     1.0352501    1.0505616   -2.4066111 
C     2.4192875    2.5565351   -0.9835486 
C    -1.3204025    1.6873768   -2.4269019 
C    -2.2435517    2.3576623   -1.5101817 
C     0.0349016    2.1107927   -2.4718873 
C    -2.0117093    3.6089559    0.5714157 
C    -0.8171574    4.2714426    1.0917650 
C    -1.8969470    3.5535090   -0.8751166 
C     1.3366135    4.4372979   -0.0592212 
C     1.5794393    3.6619208   -1.2943855 
C     0.3287448    3.4301799   -1.9412380 
C    -0.0491884    4.7188057   -0.0059736 
C    -0.6731064    4.1837374   -1.2325003 
