60 

C    -4.1031823   -2.2757202    0.4635555 
C    -4.7046950   -1.2617277   -0.2596986 
C    -4.5531072   -0.0318151    0.4823492 
C    -3.4903631   -1.6949200    1.6670043 
C    -3.7428814   -0.2652725    1.6601742 
C    -2.1499637   -2.1121484    1.7246312 
C    -3.0011480   -2.8122305   -0.3317401 
C    -1.8883689   -2.9440882    0.5151466 
C    -3.9037042   -1.0637708   -1.4960477 
C    -2.8320243   -2.0326360   -1.5382382 
C    -4.1307601    0.9806918   -0.4335948 
C    -3.5795328    0.2930248   -1.6403600 
C    -3.4539518    2.0582081    0.0710987 
C    -2.6823235    0.6566359    1.9902797 
C    -2.7403467    1.9293016    1.3463117 
C    -1.0797503   -1.2588453    2.1768399 
C    -1.3322414    0.1574551    2.3524670 
C     0.2610498   -1.7500666    1.9663532 
C    -0.6238111   -2.8938300   -0.0322781 
C     0.4471366   -2.7256643    0.9176097 
C    -1.5142883   -1.6433870   -1.9469058 
C    -0.4138563   -2.3683792   -1.3706908 
C    -2.2945566    0.7126430   -2.1602603 
C    -1.2264607   -0.2650487   -2.3630836 
C    -2.5863495    2.7741475   -0.8134534 
C    -1.9227948    2.0591999   -1.8867963 
C    -1.5812468    2.7607609    1.2509830 
C    -1.5794854    3.3986881   -0.0563634 
C    -0.1759005    1.0443029    2.3677286 
C    -0.3421005    2.3969165    1.8458881 
C     1.4114729   -0.9491808    2.3127354 
C     1.1856230    0.4830275    2.4591287 
C     2.7202155   -1.4448575    1.9671242 
C     1.6979989   -3.0091357    0.4063240 
C     2.8598821   -2.5935409    1.1148821 
C     0.9307611   -2.0862895   -1.7574361 
C     1.9502250   -2.7895371   -1.0297148 
C     0.1575267    0.1728405   -2.4614675 
C     1.2363297   -0.8084847   -2.3809773 
C    -0.5408234    2.4774444   -1.9202022 
C    -0.3680200    3.4206453   -0.8184552 
C     0.5017462    1.5827142   -2.2335148 
C     0.8022376    3.0794671    1.3110122 
C     0.8036379    3.4551781   -0.1207819 
C     2.3117065    1.3284910    2.1588381 
C     2.0759551    2.5929754    1.5633882 
C     3.7934387   -0.5454315    1.5473355 
C     3.5427148    0.8061295    1.5587320 
C     3.9457712   -2.4349509    0.1879451 
C     3.3081855   -2.4287914   -1.1449625 
C     4.4813786   -1.1459423    0.3848636 
C     2.6055809   -0.3723969   -2.3263995 
C     3.6292949   -1.2130803   -1.8049373 
C     4.4308111   -0.4245494   -0.8626318 
C     1.8598409    1.9404449   -1.7730793 
C     2.0007268    2.9173407   -0.7141604 
C     2.9138458    2.6697077    0.3478794 
C     3.8027054    1.6044699    0.3355475 
C     2.8891253    0.9863014   -1.8745069 
C     3.9811139    0.9065654   -0.9014179 
