60 

C     4.7800686   -0.0466504    0.5550007 
C     4.4995347    1.1698230   -0.1630943 
C     3.8240183    2.0291317    0.7204174 
C     4.0495568   -0.0154667    1.8384043 
C     3.5151903    1.2711785    1.9700790 
C     3.1742259   -1.1483147    1.8968170 
C     4.2894283   -1.1252460   -0.1900376 
C     3.4819829   -1.9410124    0.6891068 
C     3.8400544    0.7920896   -1.4216535 
C     3.7024092   -0.6549222   -1.4528530 
C     2.7598044    1.5421666   -1.8632654 
C     2.6434350    2.7097642    0.3191990 
C     2.2231928    2.6244929   -1.0338371 
C     2.1341690    1.4468864    2.2299358 
C     1.6329444    2.4875494    1.3463218 
C     1.7952381   -1.0172390    2.2651768 
C     1.2616420    0.3328222    2.4753739 
C     0.8549587   -2.0638387    1.8397261 
C     2.5232563   -2.7152804    0.1174318 
C     1.3017604   -3.0031101    0.8358518 
C     2.5337417   -1.2856333   -1.9636229 
C     2.1670591   -2.5229397   -1.3116472 
C     1.6148303    0.9152335   -2.5130315 
C     1.4286186   -0.4920017   -2.5482676 
C     0.8453149    2.7415068   -1.3210971 
C     0.4809486    1.7658111   -2.3399688 
C     0.2720562    2.6124555    1.0764370 
C    -0.1049778    2.9911128   -0.2822696 
C    -0.1589234    0.5730167    2.3912042 
C    -0.6759097    1.8150917    1.8303415 
C    -0.5607622   -1.8584689    1.9837693 
C    -1.0645037   -0.5588690    2.4510275 
C    -1.4766072   -2.6053456    1.1276760 
C     0.3925031   -3.4682080   -0.1414435 
C     0.8895152   -3.0216669   -1.4545692 
C    -0.9541597   -3.1859876   -0.0660437 
C     0.0350006   -0.9952639   -2.5833256 
C    -0.1852953   -2.3123213   -2.0906115 
C    -1.3803588   -2.6019270   -1.3478247 
C    -0.8496643    1.3287529   -2.4676570 
C    -1.1297005   -0.0948660   -2.5733048 
C    -1.4420125    2.8934504   -0.6387329 
C    -1.8240144    2.1953557   -1.8677728 
C    -2.0896266    1.9924279    1.5619701 
C    -2.4726330    2.6914296    0.3453592 
C    -2.4494944   -0.2960236    2.4342158 
C    -2.9973475    1.0078627    2.0685835 
C    -2.8199181   -2.2250254    1.0114794 
C    -3.3957938   -1.2935705    1.9507427 
C    -2.5402269   -1.8205359   -1.4192161 
C    -2.4610770   -0.5608355   -2.1573450 
C    -3.4224746   -1.9617957   -0.2849432 
C    -3.1314455    1.7733918   -1.6932899 
C    -3.6281009    2.2507536   -0.3768666 
C    -3.4984033    0.4040256   -1.8492984 
C    -4.2777416    0.7646538    1.4384083 
C    -4.5088640   -0.6607481    1.3829488 
C    -4.4718546   -1.0177316   -0.0453026 
C    -4.4913045    1.3031838    0.1307960 
C    -4.4832627    0.1454252   -0.8216083 
