60 

C     0.2861771   -4.6546990    0.4523000 
C    -1.1096575   -4.3056420    0.2997548 
C    -1.3091818   -3.8992274   -1.0371777 
C     0.9786334   -4.2232401   -0.7690710 
C     0.0309863   -3.8166544   -1.7000981 
C     2.0031358   -3.2532007   -0.4440128 
C     0.7820719   -3.8004288    1.4515681 
C     1.9259498   -3.0420131    0.9827349 
C    -1.4794272   -3.3422858    1.3264444 
C    -0.2713210   -3.0386958    2.0825184 
C    -2.3926243   -2.2899549    1.0392545 
C    -2.0201244   -2.7325632   -1.3663212 
C    -2.7386099   -2.0023363   -0.3589218 
C     0.1056750   -2.5574715   -2.3828386 
C    -1.2096475   -1.9663135   -2.3080429 
C     2.2505035   -2.1195468   -1.2960478 
C     1.2423814   -1.7003173   -2.2817946 
C     3.0362846   -1.1207910   -0.6998651 
C     2.2506616   -1.7896554    1.5517473 
C     3.1310067   -1.0238044    0.7368373 
C    -0.0112820   -1.7329337    2.5824360 
C     1.3040221   -1.0847751    2.4129501 
C    -2.3337854   -1.1691552    1.9177801 
C    -1.1464437   -0.8893028    2.6913952 
C    -2.9394111    0.0953148    1.5994833 
C    -3.0978887   -0.6801392   -0.7060515 
C    -3.3522591    0.3438630    0.2871370 
C    -1.3996018   -0.5901836   -2.5132767 
C    -2.5293426   -0.0117906   -1.8533182 
C     1.0873763   -0.2813692   -2.5973931 
C    -0.2509317    0.2388000   -2.8474928 
C     3.1179948    0.2261378   -1.2470377 
C     2.1294681    0.6659374   -2.1899012 
C     3.3527602    0.3279614    1.0348762 
C     3.5203885    1.0924513   -0.2003499 
C     1.4106983    0.3579703    2.5525623 
C     2.5192184    1.0363429    1.9146903 
C    -1.0418900    0.5303336    2.8810876 
C    -2.2240868    1.1388508    2.3096624 
C     0.2239788    1.1795838    2.8282129 
C    -2.1746652    2.4338782    1.8015411 
C    -3.1334509    1.6513377   -0.3148723 
C    -2.6179706    1.4092961   -1.6572801 
C    -2.6284298    2.7087994    0.4331578 
C    -0.4715229    1.6503487   -2.8515519 
C    -1.6538353    2.2384066   -2.2090519 
C     1.8504720    2.0765932   -2.1812255 
C     0.5935177    2.5466702   -2.6415254 
C     2.9551212    2.3690394   -0.0127476 
C     2.3912310    2.3918323    1.3532099 
C     2.2415634    2.9448579   -1.0654941 
C     0.2108713    2.5721721    2.4448849 
C    -0.9837233    3.1810658    2.0090891 
C     1.2809923    3.1481466    1.6152677 
C    -1.6884280    3.6609600   -0.1721294 
C    -1.2327529    3.4464127   -1.4982838 
C     0.1443410    3.6450567   -1.7981609 
C     1.1235917    3.8303119   -0.7767178 
C    -0.7160771    3.9954563    0.8202785 
C     0.6772982    3.9843023    0.5651915 
