60 

C     1.2975077   -3.7869022   -0.6310430 
C     1.5331227   -3.1556903   -1.8462338 
C     0.2515798   -2.9505162   -2.5268972 
C    -0.1483228   -4.0462987   -0.5146791 
C    -0.7809713   -3.4688054   -1.6724978 
C    -0.5548500   -3.6945311    0.7795923 
C     1.7665067   -3.2162566    0.5975628 
C     0.6649172   -3.3305851    1.5399535 
C     2.6256704   -2.0763739    0.5953501 
C     2.2866992   -1.9526294   -1.8849046 
C     2.9642767   -1.4906383   -0.7122969 
C     0.2252459   -1.6095013   -2.9633193 
C     1.5226142   -1.0048085   -2.6700716 
C    -0.9645598   -0.8108223   -2.8466278 
C    -1.9280087   -2.6878346   -1.4927829 
C    -2.0802102   -1.4395679   -2.2205022 
C    -1.7835567   -2.9389433    0.9921602 
C    -2.4831350   -2.4826954   -0.1740195 
C    -1.8467650   -2.1058464    2.1547572 
C     0.5593437   -2.4539775    2.5993306 
C    -0.7371363   -2.0028794    3.0322556 
C     2.5213018   -1.1582072    1.7430259 
C     1.4901694   -1.3400288    2.6898758 
C     3.0010014    0.1860726    1.6261272 
C     3.3638110   -0.1320060   -0.7727200 
C     3.5865718    0.6118010    0.4249039 
C     1.6801288    0.3909758   -2.5223398 
C     2.7834279    0.7962936   -1.7200071 
C    -0.8354161    0.6609329   -2.8102135 
C     0.5094406    1.2821689   -2.6989155 
C    -1.9610258    1.4045520   -2.3904785 
C    -3.0236732   -0.6391276   -1.4854639 
C    -3.2069834   -1.2233585   -0.1812110 
C    -3.0508409    0.7366665   -1.6681889 
C    -2.5099012   -0.7875015    2.1088913 
C    -3.2255846   -0.3611616    0.9603094 
C    -0.6030017   -0.6200683    3.3722285 
C     0.7245545   -0.1918430    3.1666806 
C    -1.6979501    0.1386575    2.8330541 
C     2.2597831    1.3454783    2.1638036 
C     1.0013657    1.1561051    2.7622597 
C     3.2889461    2.0131296    0.2008151 
C     2.8052924    2.1334472   -1.1254942 
C     2.5019799    2.4836329    1.2967567 
C     0.6169799    2.6075822   -2.2257376 
C     1.7631248    3.0261698   -1.3969620 
C    -1.8149338    2.7303520   -1.8079337 
C    -0.5519257    3.3275590   -1.7375599 
C    -3.4098450    1.5675845   -0.5707910 
C    -3.3092833    1.0568211    0.7506888 
C    -2.6706336    2.8028917   -0.6661082 
C    -1.5099043    1.4963658    2.4196050 
C    -0.1318138    2.0701955    2.4513483 
C    -2.4587337    1.9902395    1.4972838 
C    -2.1257018    3.0990906    0.6180150 
C     1.4639256    3.3854637    1.0435918 
C     1.2409251    3.7897772   -0.3135466 
C    -0.1750613    3.9794759   -0.5193315 
C     0.1400335    3.1947282    1.6514976 
C    -0.8605187    3.6951957    0.6971542 
