60 

C    -1.5315485   -3.8843326    0.2025715 
C    -1.3465708   -3.6979231   -1.1601057 
C    -2.2507521   -2.6455156   -1.6301613 
C    -2.5213029   -2.8957778    0.6421884 
C    -2.9223417   -2.0949244   -0.4996225 
C    -2.0060247   -2.2614507    1.7737207 
C    -0.4000203   -3.8447863    1.0910144 
C    -0.6949591   -2.8575826    2.1060094 
C     0.9012820   -3.8854851    0.5349094 
C    -0.0303193   -3.4507013   -1.7177103 
C     1.0880417   -3.6241985   -0.9049144 
C    -1.5041497   -1.7934474   -2.4710041 
C    -0.1356536   -2.2830133   -2.5740980 
C    -1.8078860   -0.3961468   -2.5001378 
C    -3.1002782   -0.6888709   -0.3724317 
C    -2.7390932    0.1478668   -1.5204841 
C    -2.2848042   -0.8717809    1.9989469 
C    -3.0006686   -0.1087818    0.9671363 
C    -1.3752481   -0.1763640    2.8252345 
C     0.3260531   -2.0311674    2.6515098 
C    -0.0352068   -0.7086554    3.0571941 
C     1.9414997   -3.1806807    1.1983216 
C     1.6789149   -2.2185981    2.2098572 
C     2.2278039   -2.7145858   -1.0539012 
C     2.8313031   -2.5761233    0.2236949 
C     0.9363762   -1.3612866   -2.7049547 
C     2.1659323   -1.5763249   -1.9349710 
C    -0.7854548    0.4431224   -3.0136526 
C     0.5752076   -0.0242823   -3.0749526 
C    -0.7721721    1.8687083   -2.7563792 
C    -2.7624276    1.5619653   -1.3561742 
C    -1.7726063    2.4422896   -1.9899874 
C    -2.9966784    1.3036953    1.0783353 
C    -3.0441661    2.1129734   -0.0921359 
C    -1.2896678    1.2573616    2.8211218 
C    -2.1464869    2.0073906    2.0301881 
C     0.8818379    0.3787233    3.0005129 
C     0.1181051    1.6161116    2.9456378 
C     2.5348724   -1.0561720    1.9642563 
C     3.2369329   -1.3114135    0.7128184 
C     2.1438313    0.2530502    2.3119600 
C     2.9161617   -0.4166665   -1.5502067 
C     3.3948273   -0.2645944   -0.1927275 
C     1.4357321    1.1019084   -2.7940453 
C     0.6140806    2.2937733   -2.6211626 
C     2.5720259    0.9041759   -2.0099632 
C     0.9599423    3.2812708   -1.7046862 
C    -1.4388480    3.5197076   -1.0564744 
C    -2.2300455    3.3079376    0.1082211 
C    -1.6524068    3.2395263    1.4057482 
C    -0.0870546    3.9195620   -0.9001605 
C     0.6129516    2.7359206    2.3161605 
C    -0.2953390    3.6128723    1.5672657 
C     0.4253969    4.0564548    0.4248658 
C     2.5964918    1.3947770    1.4916082 
C     3.2020103    1.1020898    0.2267787 
C     2.8566616    1.8659484   -0.9508014 
C     2.1203049    3.0438007   -0.8402618 
C     1.8954310    2.6415834    1.5919188 
C     1.7701694    3.4870669    0.4685618 
