60 

C     0.8939061   -3.7632252   -1.2437787 
C    -0.4650302   -3.7283221   -1.5231188 
C    -1.1905173   -3.8898837   -0.2574063 
C     1.0557851   -3.9338555    0.2142465 
C    -0.2390614   -3.8627879    0.8221400 
C     2.1260181   -3.1269623    0.6331437 
C     1.7540822   -2.7223525   -1.6696355 
C     2.6698955   -2.4586397   -0.5586018 
C     1.2462075   -1.6203431   -2.4455102 
C    -1.0322976   -2.6280815   -2.2339420 
C    -0.1988488   -1.5613706   -2.7127975 
C    -2.2974071   -3.0248771   -0.2834031 
C    -2.2871468   -2.3103133   -1.5687977 
C    -2.6133084   -2.2813729    0.8777177 
C    -0.4416593   -2.9350100    1.9186992 
C    -1.6765610   -2.2089197    1.9649873 
C     1.9926724   -2.3732265    1.8242430 
C     0.7011678   -2.2461456    2.4370581 
C     2.6744425   -1.0978555    1.9499022 
C     3.2638967   -1.2244513   -0.4375266 
C     3.3627872   -0.5650258    0.8659397 
C     2.0141837   -0.3771347   -2.4113925 
C     3.0530170   -0.2078709   -1.4389973 
C     1.3883589    0.8230496   -2.8790814 
C    -0.8416554   -0.2457211   -2.8847657 
C    -0.0253619    0.9007331   -3.0361026 
C    -2.8251622   -1.0408500   -1.6442993 
C    -2.1583634   -0.0097636   -2.3797365 
C    -3.2916831   -1.0025132    0.7683755 
C    -3.4551027   -0.4168833   -0.4823690 
C    -1.7745769   -0.8679842    2.5317698 
C    -2.8544567   -0.1695324    1.8768099 
C     0.5990285   -0.8836411    2.9697360 
C     1.8442859   -0.2131516    2.7497232 
C    -0.6299088   -0.1544393    2.9938355 
C     1.8692516    1.1705287    2.5395624 
C     3.3669268    0.8655226    0.6285943 
C     3.2659017    1.0747081   -0.7930058 
C     2.6983531    1.7376131    1.5047068 
C     1.8125127    2.1119546   -2.4050337 
C     2.6437373    2.2433679   -1.2780038 
C    -0.4729317    2.2539649   -2.6133967 
C     0.6761148    2.9999550   -2.2819788 
C    -2.5378295    1.2775510   -1.7998091 
C    -3.3396912    1.0206369   -0.6348293 
C    -1.6802256    2.4202451   -1.8702504 
C    -2.8458076    1.2108335    1.7653759 
C    -3.2139661    1.8474849    0.4987929 
C    -0.6024151    1.3139749    2.8817268 
C     0.6596485    1.9584397    2.6628966 
C    -1.7601225    1.9835400    2.3585391 
C     2.0103991    2.9160304    0.9988099 
C     2.0072918    3.1995175   -0.3655145 
C     0.7735386    3.6707412   -1.0183764 
C     0.7906551    3.0952319    1.7788135 
C    -1.6618480    3.3355589   -0.7449874 
C    -2.4588938    3.0406988    0.3934206 
C    -1.6159347    3.1562525    1.5725117 
C    -0.3812767    3.8677741   -0.2646022 
C    -0.3450145    3.6565983    1.1789726 
