60 

C     0.4116377   -4.6421530    0.4943738 
C    -0.4943937   -4.0643221    1.4829712 
C    -1.6933227   -3.7946064    0.8409610 
C    -0.1755608   -4.3494210   -0.8474375 
C    -1.4954049   -3.9608753   -0.6509955 
C     0.6893346   -3.4694782   -1.5725354 
C     1.6067014   -3.9595666    0.5639101 
C     1.9114004   -3.4382175   -0.7729631 
C     0.1710449   -2.9306361    2.1188350 
C     1.5255137   -2.9415429    1.6321640 
C    -0.4854786   -1.6663470    2.3187406 
C    -2.3949047   -2.5948434    1.0529855 
C    -1.8831948   -1.5313664    1.8754448 
C    -2.0203451   -2.8162640   -1.2695192 
C    -2.8757568   -2.2072973   -0.2631723 
C     0.2122856   -2.2198560   -2.1538873 
C    -1.2021738   -1.9032817   -2.0523763 
C     1.1499766   -1.0996607   -2.3170288 
C     2.7308513   -2.3728385   -0.8523312 
C     2.4934104   -1.3207416   -1.8362636 
C     2.2837403   -1.7680416    1.5322887 
C     3.1800219   -1.6991532    0.3855735 
C     0.3286134   -0.4577120    2.4091718 
C     1.7521778   -0.5189935    2.0665048 
C    -0.3440138    0.8473752    2.4640495 
C    -2.4948619   -0.2240214    1.7127503 
C    -1.7740957    0.9744506    2.1309003 
C    -3.3691692   -0.9783564   -0.4568374 
C    -3.4858508   -0.0811805    0.6700120 
C    -1.6535409   -0.5185484   -2.2002761 
C    -2.9529288   -0.1933721   -1.6225817 
C     0.7021801    0.2893618   -2.4513195 
C    -0.7355133    0.5825934   -2.4246482 
C     1.6514418    1.3845979   -2.1881765 
C     3.2986660   -0.2477457   -1.4425943 
C     3.6688246   -0.4759148   -0.0158382 
C     2.9246543    1.0773017   -1.5861345 
C     2.4748430    0.7081934    1.7678541 
C     3.4211707    0.7159990    0.6812054 
C     3.3069643    1.7647274   -0.3350907 
C     0.4585389    2.0197553    2.4132165 
C     1.8570257    1.9592699    2.0466704 
C    -0.0503885    3.2905647    1.9014715 
C    -2.2499058    2.2521182    1.6621781 
C    -1.3339885    3.3475016    1.4138212 
C    -3.7652010    1.1693774    0.0824148 
C    -3.3474026    1.1075085   -1.3513505 
C    -3.2234488    2.3127522    0.6088052 
C    -1.1889883    1.9750926   -2.1690507 
C    -1.5561663    3.8212169    0.0130125 
C    -2.5063027    2.2223600   -1.6164217 
C    -2.6387131    3.1067305   -0.4891016 
C     1.1901241    2.7090280   -1.9150310 
C    -0.2339984    2.9892242   -1.8814182 
C    -0.4443307    3.9723709   -0.8297857 
C     2.7674767    2.9797660   -0.0239867 
C     2.1964768    3.1384298    1.2993765 
C     1.0145039    3.9297783    1.1546892 
C     1.8611718    3.5733471   -0.9819065 
C     0.8285719    4.2255630   -0.2262923 
