60 

C    -1.1425622    4.4388580    1.1799187 
C    -0.4226370    4.7298179   -0.0552445 
C    -1.1679946    4.1891511   -1.1150944 
C    -2.2977899    3.6117375    0.8660581 
C    -2.3466920    3.4996735   -0.5357958 
C    -2.2062834    2.3852245    1.6245757 
C    -0.2762799    3.6558506    1.9608080 
C    -0.9254533    2.4013804    2.3200745 
C     0.9579622    4.3118132    0.0934002 
C     1.0547128    3.6216193    1.3795778 
C     1.6069813    3.7267159   -1.0115660 
C    -0.5727731    3.2812034   -2.0605450 
C     0.8148361    3.1409606   -2.1021125 
C    -2.4439500    2.2241600   -1.1476880 
C    -1.3874528    2.0696375   -2.1325049 
C    -2.5956470    1.1575630    1.0661369 
C    -2.7880092    1.0876292   -0.3778747 
C    -2.1203252   -0.0489181    1.7289781 
C    -0.1688343    1.2270887    2.5248328 
C    -0.8607277   -0.0594989    2.4334678 
C     1.8476821    2.4610146    1.5542621 
C     1.2735526    1.3008413    2.2848390 
C     2.6566023    2.8115106   -0.7454134 
C     2.8136782    2.1867829    0.5189810 
C     1.3940481    1.8366308   -2.4247464 
C     2.6263320    1.7379285   -1.7294031 
C    -0.8414361    0.7860899   -2.4123224 
C     0.5989196    0.6494472   -2.5688664 
C    -2.6242132   -0.1783697   -1.0050753 
C    -1.6187679   -0.3784980   -2.0287921 
C    -2.5998309   -1.2557077    1.2092237 
C    -2.9879698   -1.2843845   -0.1992892 
C    -2.0818292   -2.5539866    1.5694076 
C    -0.1454690   -1.3221993    2.5172035 
C    -0.7699438   -2.6164325    2.1522239 
C     1.9228890    0.0671107    2.2027402 
C     1.2690906   -1.2014747    2.4259838 
C     3.2381332    0.8204644    0.2711935 
C     3.0382650    0.5301696   -1.1451237 
C     2.9511420   -0.1670061    1.1857105 
C     1.1976627   -0.6525877   -2.2864750 
C     2.4344510   -0.6922070   -1.5207005 
C    -1.0859143   -1.7089980   -2.2339839 
C     0.3704776   -1.8484393   -2.3273818 
C    -2.7678456   -2.5696816   -0.6575886 
C    -2.4277847   -3.4444652    0.4902684 
C    -1.8455648   -2.8293762   -1.7144486 
C    -1.5795191   -4.4355094    0.0477918 
C    -1.2178581   -4.0801477   -1.3817640 
C     0.0669222   -3.7356215    1.7458146 
C    -0.3712855   -4.6835758    0.7467303 
C     2.0141117   -2.2282662    1.7300575 
C     2.8500107   -1.5213470    0.7629167 
C     2.6492026   -1.8110324   -0.6236717 
C     1.4673029   -3.4528622    1.4317968 
C     0.9612987   -3.0904559   -1.8950054 
C     0.1488545   -4.2374826   -1.5098629 
C     0.6806012   -4.8078286   -0.2616672 
C     2.0252677   -3.0339786   -0.9346406 
C     1.7576528   -4.0177357    0.1196745 
