60 

C     4.2959079   -1.5569842    1.0519890 
C     4.5014828   -0.1193638    1.0981170 
C     4.7072584    0.3279751   -0.2272862 
C     4.0223613   -1.9056388   -0.3529183 
C     4.3055988   -0.7944050   -1.1458370 
C     2.7046990   -2.4859704   -0.4507938 
C     3.1127800   -1.8225984    1.7396278 
C     2.1838360   -2.5553135    0.9098410 
C     3.4215852    0.4899397    1.8670508 
C     2.5841088   -0.5966769    2.3382067 
C     2.7681642    1.6937146    1.4303689 
C     4.0727554    1.4810046   -0.6774937 
C     3.1794214    2.2348183    0.1508502 
C     3.3377301   -0.2783886   -2.0781207 
C     3.3158342    1.1377393   -1.8862179 
C     1.7857121   -2.1027894   -1.4740861 
C     2.0731497   -0.9219249   -2.2838152 
C     0.4111981   -2.4989422   -1.2629894 
C     0.8236720   -2.5012191    1.1829505 
C    -0.0559768   -2.8475185    0.0820450 
C     1.2057131   -0.4732609    2.5610660 
C     0.3212916   -1.5820145    2.1974690 
C     1.3886219    1.9217937    1.8821741 
C     0.6395783    0.8668208    2.5742906 
C     0.5897306    2.8621022    1.1732978 
C     2.1251936    2.7050741   -0.7296376 
C     2.1321969    1.9075810   -1.9458586 
C     0.9185826    3.0959626   -0.2225681 
C     0.9281250   -0.0945097   -2.6752028 
C     0.9229199    1.3450881   -2.4282411 
C    -0.5690800   -2.0139578   -2.1507695 
C    -0.3320195   -0.7180734   -2.7547463 
C    -1.9758828   -2.1505717   -1.9033890 
C    -1.4190430   -2.9170007    0.3383497 
C    -2.4046769   -2.7427304   -0.7012043 
C    -1.0947745   -1.4456304    2.3383131 
C    -1.9595603   -2.3192292    1.5708116 
C    -0.7589143    0.9791150    2.7292025 
C    -1.6352562   -0.1814569    2.7319748 
C    -0.8360496    2.9067650    1.2746575 
C    -1.5118809    2.0623643    2.1563530 
C    -0.2864825    2.9342986   -0.9970738 
C    -0.3386544    2.0056646   -2.0750404 
C    -1.3882177    3.0652701   -0.0690996 
C    -1.5897533   -0.0090067   -2.7516649 
C    -2.6407941   -0.9390771   -2.3715477 
C    -1.6155569    1.3549240   -2.3339472 
C    -3.8198429   -0.4849763   -1.7453631 
C    -3.6070916   -2.2670094   -0.0702708 
C    -3.3043286   -1.9928215    1.3532656 
C    -4.3331113   -1.2130813   -0.5950119 
C    -2.9646906    0.2197411    2.3295830 
C    -2.8567576    1.6041476    1.8644668 
C    -3.8262448   -0.6933934    1.6747702 
C    -4.5552513   -0.2400347    0.5070540 
C    -2.6308011    2.5668267   -0.3827431 
C    -2.7910477    1.7847002   -1.6111151 
C    -3.8747767    0.9049909   -1.4036759 
C    -3.4747515    1.9758343    0.6549724 
C    -4.3279396    1.0313132   -0.0053896 
