60 

C     4.6956184    1.0686372   -0.4497537 
C     4.5249680   -0.1596535   -1.1524683 
C     4.5857964   -1.1968971   -0.1830677 
C     4.4267510    0.7979931    0.9894565 
C     4.4011209   -0.5779936    1.1772304 
C     3.3018958    1.5883882    1.3993188 
C     3.7144173    1.9787527   -0.8845531 
C     3.0460111    2.4950499    0.2758800 
C     3.3046795   -0.0250811   -1.9892924 
C     2.8595122    1.3458682   -1.8871694 
C     2.3021859   -1.0467105   -2.0299710 
C     3.6876608   -2.2341811   -0.2836337 
C     2.6110229   -2.2347182   -1.2604058 
C     3.2584430   -1.2103566    1.7922826 
C     3.0287998   -2.3956266    1.0134500 
C     2.1390080    0.9995911    2.0512519 
C     2.0902994   -0.4443079    2.2289672 
C     0.8770066    1.7270563    2.0000587 
C     1.7990048    2.9926774    0.0904195 
C     0.8164483    2.8632069    1.1268198 
C     1.4855461    1.7030776   -1.9858389 
C     1.0818065    2.8128529   -1.1700522 
C     0.8694753   -0.6916468   -2.2522309 
C     0.4627820    0.7050172   -2.2976192 
C    -0.1638760   -1.6726462   -1.9945266 
C     1.5123468   -2.8946685   -0.6482911 
C     1.7423998   -2.8646227    0.8043263 
C     0.2138306   -2.7871113   -1.1227210 
C     0.7703390   -1.0996441    2.2504393 
C     0.6783975   -2.4035412    1.6239983 
C    -0.4141762    1.0809699    2.3214657 
C    -0.4925958   -0.3662205    2.3847572 
C    -1.6170321    1.8037433    2.0794245 
C    -0.4084483    3.2658366    0.5481440 
C    -0.2738718    3.0582443   -0.9072770 
C    -1.5854134    2.9433646    1.1738142 
C    -0.9502371    1.0675895   -2.1975070 
C    -1.3034916    2.3605485   -1.5801744 
C    -1.5808119   -1.3538766   -2.1041793 
C    -1.9844992    0.0445472   -2.2693789 
C    -2.5411860   -2.2922800   -1.5184642 
C    -0.7420458   -3.2763157   -0.1896350 
C    -0.5591689   -2.8910505    1.2092645 
C    -2.0885544   -3.1841126   -0.4783025 
C    -1.8171122   -1.0214331    2.1626319 
C    -1.8092844   -2.3658231    1.6724856 
C    -2.8069515   -2.8309787    0.7484723 
C    -2.9228011    1.1849728    1.9017565 
C    -3.0510846   -0.2359239    1.8935952 
C    -2.7485401    2.9241662    0.3790815 
C    -2.6134387    2.5732616   -1.0343194 
C    -3.6906350    2.0117142    0.9681622 
C    -3.3661511    0.4205917   -1.9582957 
C    -3.6507889    1.6815126   -1.3394528 
C    -4.4007340    1.4084546   -0.0847571 
C    -3.8193316   -1.8295526   -1.0778699 
C    -3.8892049   -2.0474872    0.3954295 
C    -4.1014119   -0.7863199    1.0206632 
C    -4.2350672   -0.5378429   -1.3199386 
C    -4.6596279    0.0509381   -0.0319005 
