60 

C     0.1028214    4.0298664    1.2466375 
C    -1.2428338    3.7349241    1.1149172 
C    -1.5972616    3.7104421   -0.3187111 
C     0.6259835    4.2117296   -0.1341016 
C    -0.4025687    3.8402983   -1.0842253 
C     1.8609541    3.6044331   -0.1832561 
C     0.9896971    3.1250114    1.9501228 
C     2.1592352    3.0255958    1.1376617 
C     0.4777616    1.9339236    2.5848220 
C    -1.8147406    2.5942666    1.7370702 
C    -0.9827078    1.7544894    2.5675336 
C    -2.5003394    2.6460601   -0.5024268 
C    -2.7044246    1.9675939    0.7716799 
C    -2.3702374    1.8504973   -1.6410025 
C    -0.1145004    2.8597432   -2.1125103 
C    -1.1990619    1.9970250   -2.4809421 
C     2.1981420    2.6268494   -1.1782485 
C     1.2439588    2.2729898   -2.1867710 
C     2.7931972    1.8026553    0.9339454 
C     2.9445729    1.5860197   -0.5076706 
C     1.3256066    0.7294776    2.6326029 
C     2.5185850    0.6954126    1.7943872 
C     0.7413309   -0.5554024    3.0309974 
C    -1.5106546    0.4767112    2.8107900 
C    -0.6700706   -0.6346913    3.2042241 
C    -3.0104141    0.5886657    0.8236727 
C    -2.6188675   -0.0554246    2.0316320 
C    -2.7707410    0.4570671   -1.6229531 
C    -3.0881295   -0.2175991   -0.4101616 
C    -0.9905653    0.7160500   -3.1142057 
C    -2.0320379   -0.2072534   -2.6677461 
C     1.4044507    0.9645521   -2.7515032 
C     0.2959943    0.2313283   -3.3151141 
C     3.0348168    0.2685452   -1.0197391 
C     2.3208746   -0.0155122   -2.2196632 
C     3.0227907   -0.5476794    1.3225195 
C     3.2388332   -0.7843589   -0.0899360 
C     1.3876878   -1.8015343    2.6607246 
C     2.5588806   -1.7648764    1.8761350 
C     0.6334932   -2.9867922    2.2241810 
C    -1.3736219   -1.8317912    2.8810972 
C    -2.5262536   -1.4593627    2.0828574 
C    -0.7576536   -2.9574274    2.2763588 
C    -2.8583375   -1.6727835   -0.3518497 
C    -2.5820300   -2.2784448    0.9290054 
C    -1.5525043   -3.3138930    1.0939396 
C    -1.7977954   -1.5656829   -2.6169885 
C    -2.2913309   -2.3354388   -1.4874526 
C     0.5666488   -1.1911427   -3.1987915 
C     1.8088102   -1.3486677   -2.4789417 
C    -0.4806587   -2.0908778   -2.9820749 
C     2.8060592   -2.1479877   -0.3843919 
C     2.5031801   -2.7825705    0.8452973 
C     1.3032682   -3.5262341    1.0334516 
C     2.0123585   -2.4300643   -1.5544935 
C    -0.9124021   -3.8351335   -0.0291051 
C    -1.3868171   -3.4334494   -1.3101692 
C    -0.2467632   -3.2336003   -2.1655543 
C     0.5534783   -3.8912585   -0.0884572 
C     0.9528533   -3.4052886   -1.4091063 
