60 

C     1.8857826   -3.9140569   -0.4465066 
C     0.6277701   -4.0788951   -1.0052735 
C    -0.3317084   -4.1753980    0.0913132 
C     1.6885886   -3.6212767    1.0206908 
C     0.3189438   -3.6649075    1.3023795 
C     2.4751211   -2.4914867    1.3539791 
C     2.7366917   -2.9377875   -0.9458125 
C     3.2893137   -2.2031735    0.1938041 
C     2.2746842   -1.9471840   -1.8854049 
C     0.1016698   -3.1065136   -1.9363664 
C     0.8955953   -1.9592760   -2.3154013 
C    -1.5312867   -3.6369567   -0.3242579 
C    -1.2827583   -2.9142425   -1.6009300 
C    -2.3408851   -3.0216683    0.6459151 
C    -0.3108084   -2.5620191    2.0353581 
C    -1.6942749   -2.4105766    1.8367181 
C     1.9004253   -1.3820012    2.0997494 
C     0.4726147   -1.3743577    2.4127695 
C     2.5613986   -0.1402392    1.9308514 
C     3.5255345   -0.8865257   -0.1996053 
C     2.8935237   -0.6923072   -1.5046824 
C     3.3747032    0.1076047    0.7643350 
C     2.3280740    0.5459465   -1.8180131 
C     0.2233981   -0.6765458   -2.5328433 
C     1.0236145    0.5461452   -2.4846402 
C    -1.9794246   -1.7193214   -1.8798018 
C    -1.2298516   -0.5712475   -2.3986506 
C    -3.3353388   -2.1736982    0.1994139 
C    -3.1965115   -1.5043949   -1.1006550 
C    -2.3779023   -1.1679895    2.0906783 
C    -3.5077296   -1.1192651    1.1838349 
C    -0.2117061   -0.0862414    2.6059694 
C    -1.6562361    0.0151109    2.3879949 
C     1.9442713    1.1152236    2.2675592 
C     0.5609471    1.1553653    2.6165052 
C     3.1577590    1.4524198    0.3476099 
C     2.7181230    1.7131711   -0.9906438 
C     2.5327171    2.1576506    1.4535675 
C     2.0730664    2.9681994   -1.2251371 
C     0.3823110    1.8104262   -2.6069901 
C     0.9847948    3.0214740   -2.1702565 
C    -1.8307246    0.7537776   -2.2678227 
C    -1.0442848    1.9106761   -2.4041836 
C    -3.6928330   -0.2003744   -0.9330995 
C    -3.8639602    0.0404387    0.5203727 
C    -3.0029985    0.9125814   -1.4413420 
C    -2.2277390    1.2936207    1.8835506 
C    -3.2372925    1.2543228    0.8407791 
C    -2.9554693    1.9425825   -0.4016545 
C    -0.0900260    2.4283926    2.3952301 
C    -1.4476336    2.4442000    1.8737911 
C     1.8588467    3.3508406    1.2088891 
C     1.7888297    3.8598984   -0.1409594 
C     0.5846762    3.5307342    1.8271841 
C    -0.0502738    3.8502863   -1.6018795 
C    -1.2830845    3.1466634   -1.6521466 
C    -2.0832291    3.0361459   -0.4646907 
C    -1.5204828    3.4527664    0.8069094 
C     0.4368332    4.3579923   -0.3541680 
C    -0.3041694    4.1652709    0.8361160 
