60 

C     0.1892482   -5.0601511    0.0000000 
C    -1.1742099   -4.7467758    0.0000000 
C    -1.4505316   -3.8934249   -1.1468343 
C     0.7949854   -4.4112344   -1.1658819 
C    -0.2168858   -3.5994281   -1.8401978 
C     1.9701126   -3.7579892   -0.7469781 
C     0.7949854   -4.4112344    1.1658819 
C     1.9701126   -3.7579892    0.7469781 
C    -1.4505316   -3.8934249    1.1468343 
C    -0.2168858   -3.5994281    1.8401978 
C    -2.2553096   -2.7937676   -0.7288156 
C    -2.2553096   -2.7937676    0.7288156 
C    -2.1798158   -1.5523394   -1.3870555 
C     0.0530125   -2.2412892   -2.2374657 
C    -1.0352180   -1.2623646   -2.2204595 
C     2.2687561   -2.4513844   -1.1668093 
C     1.3882219   -1.6874141   -2.0184426 
C     2.2687561   -2.4513844    1.1668093 
C     2.7561222   -1.7323885    0.0000000 
C     0.0530125   -2.2412892    2.2374657 
C     1.3882219   -1.6874141    2.0184426 
C    -2.1798158   -1.5523394    1.3870555 
C    -1.0352180   -1.2623646    2.2204595 
C    -2.8753895   -0.4753672   -0.7258758 
C    -2.8753895   -0.4753672    0.7258758 
C    -2.9102766    0.7640813   -1.3994828 
C    -0.7757813    0.1263174   -2.5376233 
C    -1.8165065    1.0770994   -2.3076543 
C     1.6307037   -0.2668016   -2.0952062 
C     0.5940054    0.6210827   -2.6003428 
C     2.9146810   -0.3758089    0.0000000 
C     2.6590555    0.3259627   -1.2486862 
C     1.6307037   -0.2668016    2.0952062 
C     2.6590555    0.3259627    1.2486862 
C    -0.7757813    0.1263174    2.5376233 
C     0.5940054    0.6210827    2.6003428 
C    -2.9102766    0.7640813    1.3994828 
C    -1.8165065    1.0770994    2.3076543 
C    -3.2703059    1.9494349   -0.7023611 
C    -3.2703059    1.9494349    0.7023611 
C    -1.5410687    2.5020584   -2.1488959 
C    -2.4016837    3.0361955   -1.1430914 
C     0.8241716    2.0345421   -2.5648339 
C    -0.2377783    2.9708410   -2.2212692 
C     2.8649813    1.7224529   -1.2379854 
C     2.0081909    2.5595111   -2.0027951 
C     2.8649813    1.7224529    1.2379854 
C     3.1412912    2.4035507    0.0000000 
C     0.8241716    2.0345421    2.5648339 
C     2.0081909    2.5595111    2.0027951 
C    -1.5410687    2.5020584    2.1488959 
C    -2.4016837    3.0361955    1.1430914 
C    -1.8424421    3.7086214    0.0000000 
C    -0.2377783    2.9708410    2.2212692 
C     0.2732090    3.9417760   -1.2387721 
C     1.6807112    3.7606529   -1.2134157 
C     2.3945337    3.6751737    0.0000000 
C     1.6807112    3.7606529    1.2134157 
C    -0.4663561    4.1293713    0.0000000 
C     0.2732090    3.9417760    1.2387721 
