60 

C     1.7052420   -4.7127021    0.5471531 
C     0.3660006   -5.1654038    0.6373850 
C    -0.2497490   -5.0988487   -0.6292523 
C     1.9161823   -4.1855427   -0.8243672 
C     0.6954123   -4.3846047   -1.5393748 
C     2.3769285   -2.8488855   -0.6988247 
C     1.8374158   -3.6040859    1.4387837 
C     2.4197950   -2.5198512    0.7460653 
C    -0.3727267   -4.2703402    1.5761503 
C     0.5483682   -3.3117067    2.1051291 
C    -1.3992423   -4.2584637   -0.5068876 
C    -1.5103119   -3.7731029    0.8919087 
C     0.0068760   -3.2629090   -2.0950699 
C    -1.3499867   -3.2505575   -1.5040420 
C     1.8733060   -1.7995122   -1.5168937 
C     0.6230322   -1.9818273   -2.2240714 
C     2.2155181   -0.4614599   -1.1291137 
C     2.2113430   -1.2012288    1.1769215 
C     2.5205706   -0.1652253    0.2407988 
C     0.1522579   -1.9590625    2.3029240 
C     1.1397924   -0.8891468    2.1024186 
C    -1.9507826   -2.4506210    1.1100823 
C    -1.2111030   -1.5737932    1.9999243 
C    -2.0374402   -2.0397476   -1.3227633 
C    -2.5975228   -1.7745435   -0.0051158 
C    -0.2131524   -0.7946038   -2.4393363 
C    -1.6313001   -0.8850380   -2.1056831 
C     1.7378333    0.6338706   -1.9193845 
C     0.3935942    0.5028702   -2.4833503 
C     2.2736140    1.8941792   -1.6054853 
C     2.5553852    1.1842677    0.7091538 
C     2.8166238    2.1677558   -0.2727512 
C     0.8111995    0.4848806    2.3115936 
C     1.7539484    1.5158490    1.8801674 
C    -1.5829196   -0.1779954    2.1045256 
C    -0.5969961    0.8318108    2.4992055 
C    -3.1232854   -0.5080449    0.2286623 
C    -2.7163079    0.2718701    1.3874268 
C    -2.3763499    0.3016398   -1.9392052 
C    -3.2822849    0.4100411   -0.8430179 
C    -0.4214071    1.7312851   -2.4683749 
C    -1.7852897    1.6129491   -2.1233964 
C     1.6196668    3.1054242   -2.0154072 
C     0.1771653    3.0060928   -2.2008611 
C     2.5974277    3.5650895   -0.0051722 
C     1.9371718    4.1727298   -1.1575635 
C     1.4153794    2.8921508    2.0572055 
C     1.8899065    3.9074848    1.1589929 
C    -0.9593746    2.2007189    2.4532495 
C     0.0383544    3.1970596    2.3510465 
C    -2.9028024    1.6850246    1.0663456 
C    -3.1999769    1.7547296   -0.3366157 
C    -2.3720662    2.5510019   -1.1704273 
C    -2.0820986    2.6454502    1.6193604 
C    -0.4248585    3.9950814   -1.3350003 
C     0.6756799    4.7053591   -0.6777115 
C     0.6985642    4.7167656    0.7323356 
C    -0.4104713    4.2435217    1.4529155 
C    -1.6233831    3.6428721   -0.6197770 
C    -1.6163657    3.7790290    0.8264662 
