60 

C     0.4570613   -5.0528836    0.6752163 
C    -0.9214405   -4.6884071    0.4918133 
C    -1.1756927   -4.3976773   -0.8899520 
C     1.1308969   -4.7516510   -0.5649978 
C     0.1374387   -4.3140230   -1.5151108 
C     2.1939639   -3.8476499   -0.2980959 
C     0.9920133   -4.1368999    1.6639933 
C     2.1591478   -3.5310448    1.1534283 
C    -1.2826206   -3.6806096    1.4720043 
C    -0.0636719   -3.2649107    2.1641391 
C    -2.2163826   -2.7066314    1.1216176 
C    -1.9219852   -3.2503662   -1.2648406 
C    -2.6049776   -2.5285712   -0.2747177 
C     0.2260447   -3.0558168   -2.1873957 
C    -1.0893041   -2.4371161   -2.1688181 
C     2.3246517   -2.6174675   -0.9880686 
C     1.3550637   -2.1846846   -1.9944575 
C     2.3663732   -2.1489730    1.3109463 
C     2.6852864   -1.6158201   -0.0028405 
C     0.1743338   -1.8743229    2.4114702 
C     1.4747285   -1.3219841    2.0582101 
C    -2.1313709   -1.3871334    1.6820688 
C    -0.9504251   -0.9329698    2.3419348 
C    -2.8778101   -1.1316714   -0.4720241 
C    -2.8081967   -0.4644922    0.7974974 
C    -1.2677943   -1.0502934   -2.3118303 
C    -2.3770514   -0.4191864   -1.5960443 
C     1.1850555   -0.7793008   -2.2193159 
C    -0.1105583   -0.2068446   -2.5641351 
C     2.6151868   -0.2620609   -0.2700174 
C     2.0904088    0.1476624   -1.5501395 
C     1.6300304    0.1066266    1.9057182 
C     2.4193885    0.6552450    0.8348226 
C    -0.7342229    0.4917768    2.4231851 
C     0.6436516    0.9957873    2.4697722 
C    -2.6421966    0.9178964    0.9032554 
C    -1.7391131    1.4233829    1.9231595 
C    -2.4305971    0.9858768   -1.5181793 
C    -2.7461834    1.6673864   -0.3059723 
C    -0.2745671    1.2420372   -2.6504783 
C    -1.5033704    1.8432967   -2.2349237 
C     2.0026012    1.5169521   -1.7818809 
C     0.8864657    2.0827894   -2.5329734 
C     2.4731839    2.0722195    0.5758277 
C     2.4519045    2.4841625   -0.8168200 
C     0.8920253    2.3741231    2.4264450 
C     1.9138737    2.9562691    1.5430171 
C    -1.4600836    2.8102246    1.9019438 
C    -0.2149185    3.2942504    2.4138365 
C    -2.2729023    3.0320550   -0.4030843 
C    -1.5546200    3.1744100   -1.6667112 
C    -1.8294923    3.6744124    0.7534645 
C     0.7986070    3.4403356   -2.1892227 
C     1.8506084    3.7339621   -1.1855238 
C    -0.4207522    4.0241991   -1.7128648 
C     1.4699976    4.2856101    1.1613746 
C     0.1661300    4.4654286    1.7122744 
C    -0.8014866    4.6919443    0.6331995 
C     1.3558472    4.6076543   -0.2307252 
C    -0.0981813    4.8434872   -0.5634744 
