60 

C    -1.3176171   -4.5242818   -0.3201153 
C     0.0340136   -4.7482914   -0.1432965 
C     0.4573873   -4.1824601    1.1493735 
C    -1.8066348   -3.7921071    0.8220380 
C    -0.6753615   -3.5128447    1.7372647 
C    -2.5406370   -2.6975411    0.3380665 
C    -1.5066775   -3.6687715   -1.5144561 
C    -2.3531317   -2.6054588   -1.1343183 
C     0.7623861   -4.0728404   -1.1981703 
C    -0.2190108   -3.3199574   -2.0204776 
C     1.5987677   -3.4105785    0.8990707 
C     1.7832539   -3.3411888   -0.5911730 
C     1.8617811   -2.2408741    1.6442729 
C    -0.5346231   -2.2069882    2.2945480 
C     0.8017221   -1.6143257    2.4218632 
C    -2.6322084   -1.5074484    1.0982068 
C    -1.6716506   -1.2777079    2.1706543 
C    -3.1453860   -0.3942294    0.3932071 
C    -2.2123099   -1.3256274   -1.7201629 
C    -2.8873929   -0.2800780   -1.0355632 
C     0.0714810   -1.9721884   -2.4201243 
C    -1.0056493   -0.9857287   -2.4527367 
C     2.2594024   -2.1385232   -1.1851840 
C     1.4319972   -1.4826784   -2.2117246 
C     2.8953484   -1.4199093    1.0927627 
C     3.0924478   -1.3527493   -0.3712320 
C     3.1245128   -0.1477764    1.5919465 
C     0.9492164   -0.1995942    2.7641763 
C     2.1383805    0.5151888    2.3898398 
C    -1.5091581    0.0569795    2.5834054 
C    -0.2158168    0.5996826    2.9096862 
C    -3.0958790    0.9233960    0.9271655 
C    -2.3152428    1.1493714    2.0602077 
C    -2.7172902    1.0888564   -1.3679005 
C    -3.0253942    1.8723492   -0.1811934 
C    -0.7170649    0.4247610   -2.6747494 
C    -1.6577097    1.4826767   -2.2549210 
C     1.6937324   -0.1304250   -2.4667801 
C     0.6440294    0.7939793   -2.8073193 
C     3.4127156    0.0140812   -0.6973704 
C     3.5506279    0.7476277    0.5246897 
C     2.7316576    0.6195568   -1.7653633 
C     2.0866380    1.8759297    1.9319385 
C     2.9122199    1.9759820    0.7084252 
C    -0.2312977    2.0188048    2.6217069 
C    -1.5555974    2.3790245    2.1681427 
C     0.9264543    2.6777540    2.0633629 
C    -2.4818443    3.1271506   -0.0061847 
C    -1.7258877    3.4158476    1.2380022 
C    -1.2163003    2.8366010   -2.1419689 
C    -1.7473445    3.6927773   -1.1102478 
C     1.1038623    2.1272534   -2.4686234 
C     2.3142433    1.9860062   -1.6706980 
C     2.4168367    2.7180754   -0.4231856 
C     0.2171765    3.1584790   -2.2285458 
C     0.7289051    3.7502537    1.1294943 
C    -0.5892912    4.1993153    0.8505397 
C    -0.6829200    4.4714313   -0.5722746 
C     1.4537363    3.7253469   -0.1682011 
C     0.5373957    4.1286346   -1.1997962 
