60 

C    -0.8473276   -4.1899252    0.0125456 
C    -0.5735219   -3.8602762    1.3180821 
C     0.8819865   -3.6585217    1.4850868 
C     0.4741893   -4.1977473   -0.6954049 
C     1.5084885   -3.7227224    0.2063316 
C     0.2819869   -3.5724967   -1.8972219 
C    -1.7833058   -3.3938082   -0.7572634 
C    -1.1359190   -3.1487451   -2.0063905 
C    -2.5304471   -2.3331445   -0.1430878 
C    -1.2614782   -2.7907594    1.9765802 
C    -2.3340122   -2.1229703    1.3029269 
C     1.0384572   -2.5573421    2.3440459 
C    -0.2752679   -2.0060586    2.6771046 
C     2.0650328   -1.6530843    2.0753656 
C     2.3896000   -2.6536719   -0.2040604 
C     2.8009663   -1.7487441    0.8331796 
C     1.1167633   -2.4934661   -2.3498565 
C     2.2278233   -2.0597902   -1.5492596 
C    -1.1498157   -1.8978584   -2.6148322 
C     0.2391499   -1.5193549   -2.9305641 
C    -2.8432503   -1.1522773   -0.9656276 
C    -2.0849154   -0.9050716   -2.1869201 
C    -3.3822846    0.0061223   -0.3153155 
C    -2.6622680   -0.8655754    1.8628365 
C    -3.3790369    0.0780544    1.0942117 
C    -0.4370350   -0.6017522    2.9167208 
C    -1.7292615   -0.0999460    2.6669089 
C     1.9562758   -0.2636167    2.4654750 
C     0.7112327    0.3158156    2.8471462 
C     3.2958955   -0.4241994    0.5565705 
C     2.8824737    0.4639195    1.6449806 
C     2.6478368   -0.7123161   -1.7671687 
C     3.3061867    0.0730042   -0.7421028 
C     0.5984376   -0.1543229   -3.0306067 
C     1.8829922    0.2206870   -2.5479269 
C    -1.7769926    0.4335831   -2.5703728 
C    -0.4517098    0.8099883   -2.9758317 
C    -3.1487212    1.3722897   -0.7928930 
C    -2.3496072    1.5788401   -1.9040239 
C    -3.0452282    1.4228171    1.5229151 
C    -1.9522391    1.3228705    2.4192563 
C    -2.9758777    2.2540555    0.3765765 
C     0.4998783    1.7521077    2.6047855 
C    -0.8684210    2.2515528    2.3551376 
C     2.7127768    1.8106167    1.4427097 
C     1.5915764    2.5023540    2.0566249 
C     3.0532843    1.4798849   -0.9815373 
C     2.1311930    1.5751963   -2.0760179 
C     2.9320390    2.3799014    0.1032180 
C    -0.1968659    2.1795514   -2.5609433 
C    -1.3956809    2.6813312   -1.9534754 
C     1.1114528    2.5889284   -2.1076443 
C    -2.0296281    3.2672895    0.3649787 
C    -1.0637593    3.3712771    1.4561460 
C    -1.3088344    3.5903351   -0.8783611 
C     1.3536813    3.6571233    1.2430414 
C     2.1001886    3.5000878   -0.0153158 
C     1.1673484    3.6349232   -1.1064001 
C     0.0660620    4.0599826    0.9295453 
C    -0.0525432    4.1250744   -0.5346081 
