60 

C     0.0346732   -4.6960236    0.0142338 
C    -0.8638411   -4.2072412    1.0306430 
C    -2.0242077   -3.7308384    0.4024614 
C    -0.4669957   -4.2053217   -1.2860974 
C    -1.7584945   -3.7056248   -1.0721804 
C     0.5055201   -3.3278974   -1.8650807 
C     1.2882374   -4.1205942    0.2336955 
C     1.6890535   -3.4529322   -0.9866628 
C    -0.1318296   -3.2755313    1.8795716 
C     1.2442390   -3.2837933    1.4389275 
C    -0.7075706   -2.0431302    2.3017475 
C    -2.5979295   -2.5007290    0.7598593 
C    -2.0344857   -1.6654434    1.7879484 
C    -2.1409036   -2.4442461   -1.5607049 
C    -2.9137758   -1.8239244   -0.4909267 
C     0.1608172   -2.0223530   -2.3797722 
C    -1.2307711   -1.5918970   -2.2907529 
C     1.2042766   -0.9785702   -2.4234759 
C     2.5797346   -2.4343557   -0.9007779 
C     2.4772727   -1.2947635   -1.7957112 
C     2.0697760   -2.1321427    1.5349803 
C     2.9750037   -1.9149329    0.4198672 
C     0.2052478   -0.9764560    2.7106108 
C     1.6085837   -0.9744563    2.2808406 
C    -0.3855339    0.2610072    3.0539296 
C    -2.4369820   -0.2591170    1.7969540 
C    -1.6816481    0.6442720    2.5675524 
C    -3.1665869   -0.4895802   -0.5320914 
C    -3.1267412    0.3087284    0.6664934 
C    -1.5548779   -0.1766561   -2.3704733 
C    -2.6844294    0.3022263   -1.6319297 
C     0.8747227    0.4147528   -2.6059778 
C    -0.5331110    0.8111650   -2.7245907 
C     1.8200523    1.4545166   -2.1313356 
C     3.2637015   -0.2851493   -1.2200465 
C     3.5019136   -0.6494180    0.1893883 
C     2.9042523    1.0558811   -1.2758182 
C     2.2808173    0.3218908    2.0808840 
C     3.1783314    0.4680123    0.9778407 
C     2.9945462    1.6033177    0.0643837 
C     0.3892142    1.4617547    3.1162254 
C     1.6430910    1.5305697    2.4910545 
C    -1.6420837    2.0910736    2.2609538 
C    -0.4067431    2.5940514    2.7127391 
C    -2.9624829    1.6716078    0.2593738 
C    -2.7720037    1.6564193   -1.1911518 
C    -2.2368377    2.6142362    1.0536143 
C    -0.8735127    2.1877731   -2.6256624 
C    -2.0095264    2.6227011   -1.8192967 
C     1.4130867    2.7840300   -1.9480468 
C     0.1383789    3.2102470   -2.4198256 
C     2.2871530    2.7693156    0.4153368 
C     1.6782959    2.7812391    1.7103820 
C     0.4016186    3.4425856    1.8793113 
C     1.6866673    3.4961726   -0.6695835 
C    -1.5615345    3.6935701    0.3833114 
C    -1.5990284    3.7769038   -1.0594919 
C    -0.3462493    4.2326015   -1.5581963 
C    -0.2014542    4.0908373    0.7870723 
C     0.5538934    4.3096596   -0.4265265 
