60 

C     1.8064400   -4.2371342    0.5665575 
C     0.4044188   -4.5186692    0.8462634 
C    -0.2522745   -4.6761883   -0.4041413 
C     1.9059722   -3.8694109   -0.8464625 
C     0.6871392   -4.1568533   -1.4591037 
C     2.4255649   -2.5217829   -0.9501211 
C     2.1734294   -3.1019052    1.2927930 
C     2.7191154   -2.1008530    0.4092233 
C    -0.0901856   -3.5215403    1.7664928 
C     1.0496467   -2.6566688    2.1004027 
C    -1.3634180   -2.8863451    1.5727626 
C    -1.4796086   -4.0694471   -0.6131649 
C    -2.1060341   -3.2480517    0.3814649 
C    -0.0048938   -3.1557304   -2.2279302 
C    -1.3730651   -3.2318334   -1.8212254 
C     1.8413089   -1.5529076   -1.8223246 
C     0.5524280   -1.8467283   -2.4441764 
C     2.2090719   -0.1738853   -1.5912215 
C     2.6651332   -0.7628351    0.7711084 
C     2.7830580    0.1845863   -0.3068339 
C     0.9203939   -1.3009797    2.4371047 
C     1.9177761   -0.3468974    1.9504398 
C    -1.5584359   -1.5438707    2.1479285 
C    -0.4218929   -0.8029185    2.7277788 
C    -2.6186496   -0.7413465    1.6548801 
C    -2.7424027   -2.1610258   -0.3398756 
C    -2.1738261   -2.0928944   -1.6834613 
C    -3.0813341   -0.9989258    0.3055203 
C    -0.3518126   -0.7169270   -2.6202949 
C    -1.7370707   -0.8396123   -2.1811951 
C     1.5844332    0.8801025   -2.3635216 
C     0.1986570    0.6156681   -2.7780226 
C     2.0072681    2.2256001   -2.1134620 
C     2.9084290    1.5375192    0.0540260 
C     2.7279236    2.5233337   -0.9152093 
C     1.7573954    1.0597473    2.2035392 
C     2.3965331    2.0109725    1.3497560 
C    -0.5559062    0.5580207    3.0314777 
C     0.5739784    1.4916708    2.8968448 
C    -2.6707826    0.6820610    1.8362895 
C    -1.7473306    1.3032134    2.6807604 
C    -3.0830395    0.2527373   -0.3965576 
C    -2.4240042    0.3403310   -1.6648832 
C    -2.9879024    1.3239764    0.5750725 
C    -0.7096466    1.7192831   -2.7704934 
C    -1.9431575    1.6002097   -2.0351028 
C     1.0789914    3.3237091   -2.2643398 
C    -0.2414905    3.0523054   -2.5421456 
C     2.1150967    3.6863028   -0.2463000 
C     1.8727258    3.3388983    1.1390209 
C     1.1256240    4.2030524   -1.0606958 
C     0.0677754    2.7875626    2.6596740 
C    -1.3611406    2.6407936    2.4046055 
C     0.6165832    3.6800616    1.6979862 
C    -2.4555334    2.5981081    0.2184933 
C    -2.0896980    2.7734338   -1.1650286 
C    -1.0836969    3.6886215   -1.5141708 
C    -0.2306421    4.3362882   -0.5511757 
C    -1.6720249    3.3183615    1.2009288 
C    -0.4814108    4.0976362    0.8134454 
