60 

C     0.5368956   -5.2549773   -0.1102213 
C    -0.5789396   -5.2989504    0.7160827 
C    -1.7192948   -4.8463162   -0.0673219 
C     0.1710411   -4.6388222   -1.4302533 
C    -1.2188255   -4.3960258   -1.4064517 
C     1.0858209   -3.5699803   -1.6728324 
C     1.5701242   -4.4357461    0.4737104 
C     2.0397745   -3.5484247   -0.5380674 
C    -0.3303034   -4.3263870    1.8023691 
C     1.0371390   -3.8323351    1.6865970 
C    -2.2171737   -3.7046476    0.5484619 
C    -1.3480320   -3.3499087    1.7143368 
C    -1.6555068   -3.0568016   -1.6345822 
C    -2.3824078   -2.6455193   -0.4286324 
C     0.6455847   -2.2986386   -2.1793418 
C    -0.7864650   -2.0628754   -2.1709007 
C     1.5067141   -1.1229595   -2.0056142 
C     2.5884110   -2.3336849   -0.1560712 
C     2.5312938   -1.1863198   -1.0251046 
C     1.3275018   -2.4671137    1.9632037 
C     2.3590197   -1.8398127    1.1811043 
C    -1.0999552   -1.9691232    1.9795723 
C     0.2426029   -1.5461845    2.3106906 
C    -2.4089485   -1.3222788   -0.0255288 
C    -1.9461015   -0.9695433    1.3301265 
C    -1.2354841   -0.6960006   -2.0569004 
C    -2.1509332   -0.3221486   -1.0232932 
C     1.0274670    0.2003372   -2.3563738 
C    -0.3938759    0.3654814   -2.5305551 
C     1.7413186    1.3955973   -1.9242664 
C     2.7505290   -0.0132647   -0.2213248 
C     2.5088507   -0.4219707    1.1364267 
C     2.4564066    1.2856162   -0.6618587 
C     0.4912274   -0.1351902    2.4056480 
C     1.7230755    0.4476008    1.9218899 
C    -1.7887487    0.3852747    1.6366116 
C    -0.6304550    0.7691948    2.4280017 
C    -2.3638754    1.0584525   -0.6702937 
C    -2.3519747    1.4210711    0.7414657 
C    -0.9645688    1.6700087   -2.5476465 
C    -2.0303985    2.0360748   -1.6197683 
C     1.2198118    2.6767875   -2.2661024 
C    -0.1480373    2.7991919   -2.7016929 
C     1.4709019    3.7996207   -1.4259549 
C     2.3063608    2.3163549    0.3502825 
C     1.8344871    1.8696847    1.6597418 
C     1.9532682    3.6382280   -0.0944955 
C    -0.3787184    2.1322708    2.6260622 
C     0.9207959    2.7076209    2.3625217 
C    -2.2165674    2.7711582    1.0795645 
C    -1.3687847    3.1208124    2.2235324 
C    -1.8848860    3.4432734   -1.2808142 
C    -0.7660543    3.9520550   -2.0457956 
C     0.2541270    4.6542017   -1.3733836 
C    -2.0436620    3.8342137    0.0723755 
C     1.2011392    4.5297551    0.7592156 
C     0.6982215    4.0832350    1.9777135 
C    -0.7466194    4.3409687    1.9794876 
C     0.0758843    5.1068964   -0.0554632 
C    -1.1201982    4.8009130    0.6401108 
