60 

C     0.2518643    3.9585644    1.0383348 
C    -1.0536805    3.9427156    0.5871382 
C    -1.0340447    3.8432597   -0.8951823 
C     1.1458734    3.9442451   -0.1302014 
C     0.3304953    3.7704753   -1.3119465 
C     2.2233567    3.0943358    0.1439065 
C     0.7240075    2.9766284    1.9781737 
C     2.0471556    2.6257084    1.5335489 
C    -0.1517539    1.9537768    2.4752184 
C    -1.9851102    3.0168886    1.1040998 
C    -1.5627686    2.0593388    2.1134907 
C    -1.9863469    2.8781610   -1.2633233 
C    -2.7313153    2.5278250   -0.0502054 
C    -1.6592406    1.8275078   -2.2029010 
C     0.6797339    2.7563354   -2.2221366 
C    -0.3301548    1.8489516   -2.7142515 
C     2.6875872    2.1457579   -0.8543071 
C     1.8952107    1.9812320   -2.0260285 
C     3.3857080    0.9854122   -0.3873222 
C     2.6040944    1.4328741    1.9250037 
C     3.4695686    0.7512271    1.0157997 
C     0.4189520    0.6087100    2.7761872 
C     1.8018411    0.4194815    2.5930615 
C    -0.4189520   -0.6087100    2.7761872 
C    -2.3540990    0.8853867    2.2141803 
C    -1.8018411   -0.4194815    2.5930615 
C    -3.4001948    1.3316142    0.0231202 
C    -3.4030320    0.6512705    1.2780469 
C    -2.3451436    0.5212927   -2.0837804 
C    -3.2667136    0.3190299   -1.0255889 
C    -1.7008864   -0.6594963   -2.5929676 
C     0.3458602    0.6015988   -3.0391678 
C     1.7008864    0.6594963   -2.5929676 
C    -0.3458602   -0.6015988   -3.0391678 
C     3.2667136   -0.3190299   -1.0255889 
C     2.3451436   -0.5212927   -2.0837804 
C     3.4030320   -0.6512705    1.2780469 
C     2.3540990   -0.8853867    2.2141803 
C     3.4001948   -1.3316142    0.0231202 
C     0.1517539   -1.9537768    2.4752184 
C     1.5627686   -2.0593388    2.1134907 
C    -0.7240075   -2.9766284    1.9781737 
C    -2.6040944   -1.4328741    1.9250037 
C    -3.4695686   -0.7512271    1.0157997 
C    -3.3857080   -0.9854122   -0.3873222 
C    -2.0471556   -2.6257084    1.5335489 
C    -1.8952107   -1.9812320   -2.0260285 
C    -2.6875872   -2.1457579   -0.8543071 
C    -2.2233567   -3.0943358    0.1439065 
C     0.3301548   -1.8489516   -2.7142515 
C     1.6592406   -1.8275078   -2.2029010 
C    -0.6797339   -2.7563354   -2.2221366 
C     2.7313153   -2.5278250   -0.0502054 
C     1.9851102   -3.0168886    1.1040998 
C     1.9863469   -2.8781610   -1.2633233 
C    -0.2518643   -3.9585644    1.0383348 
C    -1.1458734   -3.9442451   -0.1302014 
C    -0.3304953   -3.7704753   -1.3119465 
C     1.0536805   -3.9427156    0.5871382 
C     1.0340447   -3.8432597   -0.8951823 
