60 

C     3.0543438   -3.0311897   -0.5840608 
C     1.8084316   -3.6644736   -0.8079567 
C     1.0895476   -2.9185743   -1.8040613 
C     3.1405104   -1.8663231   -1.4360017 
C     1.9350530   -1.7553599   -2.1842557 
C     3.5025945   -0.7410721   -0.6501943 
C     3.0157579   -2.5427370    0.7612783 
C     3.3051292   -1.1576799    0.7550314 
C     1.1444181   -3.8691390    0.4647093 
C     1.8096414   -2.9972496    1.4211628 
C    -0.2357186   -3.9636382    0.4574910 
C    -0.3247205   -2.8174433   -1.7577986 
C    -1.0035997   -3.5516143   -0.7227555 
C    -0.9479451   -1.6056987   -2.3258252 
C     1.3523272   -0.4866920   -2.4521718 
C    -0.0900103   -0.4439410   -2.6765141 
C     3.1138149    0.5420192   -1.0383418 
C     2.0672052    0.7280045   -2.0304154 
C     3.2286172    1.5036587    0.0163677 
C     2.6338530   -0.2683106    1.6518354 
C     2.8500973    1.0843418    1.3750760 
C     1.0184955   -2.0920738    2.2185590 
C     1.4004759   -0.6794213    2.3279081 
C    -0.9460741   -3.4624956    1.5794686 
C    -0.3586977   -2.4219224    2.3738204 
C    -2.3014944   -3.1252615   -0.2611094 
C    -2.2698953   -3.0702184    1.1828867 
C    -2.3115849   -1.3813429   -2.0450225 
C    -2.9827466   -2.1205442   -0.9583463 
C    -2.8592647   -0.0369245   -2.0422940 
C    -0.6817721    0.8342643   -2.7539816 
C    -2.0591134    1.0454777   -2.3848854 
C     1.4113895    2.0264186   -2.0739639 
C     0.0445888    2.0543640   -2.4592162 
C     2.8034705    2.8032730   -0.1519308 
C     1.8799658    3.1216539   -1.2243138 
C     2.0658541    2.1346599    1.9527045 
C     2.2523192    3.2954681    1.1144468 
C     0.4064976    0.3443991    2.5784267 
C     0.7590267    1.7740964    2.4422438 
C    -1.3645802   -1.3914259    2.5206741 
C    -2.5840881   -1.8467083    1.8252973 
C    -1.0176154   -0.0340911    2.5706663 
C    -3.7486046   -1.1779664   -0.2156932 
C    -3.7110326    0.0878702   -0.8975228 
C    -3.4137105   -0.9296980    1.1627601 
C    -2.0209121    0.9308604    2.0650094 
C    -3.4696878    1.1381542    0.0265527 
C    -3.1396986    0.4721566    1.2939569 
C    -2.1433935    2.3035557   -1.6724257 
C    -0.8942354    2.9865143   -1.8613680 
C    -2.7695988    2.2994758   -0.3753986 
C     0.9617941    4.0644927   -0.6894871 
C     1.1799770    4.1078015    0.7929505 
C    -0.4345925    3.9330480   -0.9087265 
C    -0.2919514    2.7372273    2.1998273 
C    -1.6213373    2.2517470    1.8325737 
C    -2.0902890    3.0019268    0.6753652 
C    -0.0596250    3.9101252    1.4258710 
C    -1.0876069    3.9341760    0.3811178 
