60 

C    -1.4064975   -4.1296944    0.4273699 
C    -0.0506692   -4.0615393    0.8618408 
C     0.0632520   -3.0965008    1.9169059 
C    -2.1774946   -3.1844161    1.1611910 
C    -1.2770692   -2.5144682    2.0736010 
C    -2.8091129   -2.3115645    0.2159243 
C    -1.3878513   -3.7042699   -0.9526067 
C    -2.2933724   -2.6334946   -1.1187242 
C     0.8197571   -3.9475072   -0.2831184 
C    -0.0322666   -3.5548316   -1.4166253 
C     2.0338557   -3.3151864   -0.0984113 
C     1.2284197   -2.2852088    2.0359786 
C     2.3016814   -2.5413869    1.1201369 
C     1.0819176   -0.9423347    2.6098190 
C    -1.4381280   -1.1475336    2.4180622 
C    -0.2578741   -0.4151811    2.8799155 
C    -3.1231251   -0.9750264    0.5728879 
C    -2.5587967   -0.4181893    1.8052962 
C    -3.3866584   -0.1025484   -0.5061779 
C    -2.0097003   -1.5675556   -2.0169866 
C    -2.8306484   -0.4186206   -1.8198944 
C     0.3328017   -2.4258449   -2.2282764 
C    -0.6669064   -1.4052050   -2.5689846 
C     2.5828923   -2.5793338   -1.1954259 
C     1.7203719   -2.0315889   -2.1754016 
C     3.2033343   -1.4739962    0.7476524 
C     3.3909392   -1.5067644   -0.6720617 
C     2.1214500    0.0033955    2.3856055 
C     3.1302660   -0.2283815    1.3771749 
C     1.9001000    1.4335606    2.4348655 
C    -0.4027145    0.9896779    3.0866937 
C     0.6728480    1.9317339    2.8311419 
C    -2.6182970    0.9824871    1.9658323 
C    -1.6119547    1.6349824    2.7140638 
C    -3.3730826    1.3464079   -0.3469225 
C    -2.9789785    1.8855599    0.8743250 
C    -2.4719280    0.7982795   -2.4070332 
C    -2.8505561    1.9156009   -1.5421594 
C    -0.2229277   -0.0506548   -2.9352978 
C    -1.1733549    1.0147157   -2.9148170 
C     2.1221994   -0.6433377   -2.3711149 
C     3.1863671   -0.3287184   -1.4330241 
C     1.1881530    0.3367499   -2.7712052 
C     3.3161351    0.9992143    0.6291346 
C     2.6354702    2.0565644    1.3487457 
C     3.2563567    0.9503740   -0.8087132 
C     2.0771439    3.1559322    0.6751683 
C     0.1053618    3.1088343    2.1589725 
C    -1.3051974    2.9135907    2.1047416 
C    -2.0593140    3.0282085    0.9000165 
C     0.7542552    3.6523517    1.0483717 
C    -1.8142719    2.8668832   -1.5420473 
C    -0.8160635    2.3794098   -2.5042427 
C    -1.4014526    3.4889503   -0.2959749 
C    -0.0165260    3.8788504   -0.1842907 
C     1.5288556    1.6930716   -2.4534599 
C     2.5549107    2.0038403   -1.4723420 
C     2.1379635    3.1612087   -0.7519488 
C     0.5047101    2.7202416   -2.3325249 
C     0.8710212    3.6102068   -1.2616216 
