60 

C     1.9195730   -3.6964999   -0.3540647 
C     0.5967058   -4.0183447   -0.3699192 
C     0.0310731   -3.8370824    0.9929486 
C     2.2455945   -3.3046515    1.0510110 
C     1.0052229   -3.1242960    1.7670050 
C     3.1558152   -2.2924581    0.9848485 
C     2.4244000   -2.6640022   -1.2319023 
C     3.3792658   -1.9496252   -0.4436117 
C     1.5235680   -1.9058378   -2.0666929 
C    -0.3133413   -3.4244606   -1.3016958 
C     0.1169234   -2.3317258   -2.1414415 
C    -1.2585495   -3.3853733    0.8502725 
C    -1.5636436   -3.3379214   -0.6094070 
C    -1.7405751   -2.3072359    1.6705879 
C     0.6645353   -1.8205297    2.3039873 
C    -0.7508685   -1.4313285    2.3179211 
C     2.9644016   -1.0655449    1.6812665 
C     1.7050642   -0.7701468    2.3089082 
C     3.6020132   -0.5825929   -0.5407594 
C     3.5675175   -0.0601115    0.8331686 
C     1.8681676   -0.4847476   -2.3085257 
C     2.9708513    0.1749736   -1.5856822 
C     0.8481010    0.3731111   -2.7853531 
C    -0.9241869   -1.3632109   -2.5001081 
C    -0.5351981   -0.0420428   -2.8306897 
C    -2.5865212   -2.5271152   -1.0489016 
C    -2.2702439   -1.5008195   -2.0376250 
C    -3.0174887   -1.8073925    1.2731322 
C    -3.5088937   -2.0169811   -0.1064624 
C    -3.4022188   -0.5232498    1.6846300 
C    -1.1160121   -0.0305481    2.5644970 
C    -2.4648907    0.3616869    2.2778220 
C     1.3317845    0.6492271    2.4302129 
C    -0.0824015    1.0199933    2.5989763 
C     3.3097916    1.2606299    1.0464406 
C     2.2398406    1.6469268    1.9566071 
C     2.9617317    1.5899645   -1.3916421 
C     3.2656639    2.1229822   -0.0894661 
C     0.8661636    1.8090201   -2.5892838 
C     1.9033363    2.4280446   -1.9138372 
C    -1.3758133    1.0985705   -2.5553287 
C    -0.5162991    2.2524132   -2.4091061 
C    -3.1029700   -0.3611006   -1.7254016 
C    -3.9106244   -0.7318113   -0.5803468 
C    -3.9569460    0.1600636    0.5141503 
C    -2.6089674    0.9736955   -1.8533925 
C    -2.7119375    1.6713861    1.6841259 
C    -3.4459852    1.4688290    0.4404564 
C    -2.8790262    1.9680099   -0.7920531 
C    -0.4579164    2.3732336    2.3340524 
C    -1.7668844    2.6572080    1.7745000 
C     1.7857210    2.9444524    1.4974688 
C     2.3923672    3.2124497    0.2114806 
C     1.5793022    3.4812076   -0.9336379 
C     0.4599614    3.3095527    1.6937407 
C    -0.8337187    3.2661288   -1.5183368 
C    -2.0019526    3.0802161   -0.6589709 
C    -1.5960101    3.5152160    0.6423255 
C     0.2504234    3.8706830   -0.7292347 
C    -0.2347954    3.9589128    0.6163367 
