60 

C     0.0769503    4.4128619   -0.4620430 
C     0.9403653    4.2718562    0.6190517 
C     0.1883328    3.6593803    1.7492369 
C    -1.2796980    4.1114573    0.0304371 
C    -1.1599684    3.4676061    1.3285963 
C    -1.9651506    3.4587748   -0.9715088 
C     0.2887110    3.6266554   -1.6696872 
C    -1.0061157    3.1802303   -2.0698941 
C     1.3805763    2.6765630   -1.7504344 
C     2.1286897    3.5508687    0.4709859 
C     2.3666175    2.7545396   -0.6968910 
C     0.9823996    2.5986678    2.2853585 
C     2.2480701    2.6415393    1.6254575 
C     0.3792642    1.3296470    2.6019462 
C    -1.7979046    2.2102488    1.5791151 
C    -1.0664440    1.2345912    2.4149658 
C    -2.7082637    2.2812596   -0.7182375 
C    -2.7277489    1.6707312    0.5842562 
C    -1.2554890    1.8890234   -2.5322829 
C    -2.4628691    1.4042415   -1.8491110 
C     1.1518768    1.3486365   -2.3650508 
C    -0.1900106    0.9562249   -2.7613962 
C     2.1210430    0.2699022   -2.1432922 
C     2.9942630    1.5386615   -0.2370112 
C     2.8325383    1.4512182    1.2102895 
C     3.0323860    0.3690907   -0.9973368 
C     1.1868061    0.1203989    2.5333753 
C     2.4448952    0.2063109    1.8041385 
C     0.5623231   -1.1925597    2.6882299 
C    -1.6338220   -0.0241702    2.6016489 
C    -0.8404085   -1.1919937    2.9290428 
C    -3.1410223    0.2760306    0.6558806 
C    -2.7987069   -0.4656741    1.8314635 
C    -2.7326950    0.0685270   -1.7570276 
C    -3.2767313   -0.4932009   -0.5433758 
C    -0.5718842   -0.4612381   -2.8354874 
C    -1.8615701   -0.8956153   -2.3736875 
C     1.8033901   -1.0475981   -2.5764876 
C     0.4410455   -1.4321106   -2.8247952 
C     2.4415410   -2.2018608   -1.9918512 
C     3.3744736   -0.8090160   -0.2470182 
C     2.9421883   -0.9197172    1.1327793 
C     3.1858066   -2.0862174   -0.8209731 
C     1.1658777   -2.4001202    2.0901407 
C     2.3803025   -2.2504581    1.3359247 
C     2.6354592   -3.0155838    0.1770454 
C     0.3092443   -3.4740224    1.6567901 
C    -1.6362616   -2.3333860    2.5908483 
C    -2.8082301   -1.8686944    1.8336631 
C    -1.0844693   -3.4243898    1.9446962 
C    -2.9915983   -1.9039242   -0.5834487 
C    -2.0614493   -2.1483981   -1.6886715 
C    -2.8620138   -2.6317398    0.6129913 
C    -1.8395962   -3.6365305    0.6941475 
C     0.2152208   -2.7796299   -2.2724659 
C     1.4543103   -3.2615569   -1.8055246 
C     1.5784045   -3.7577157   -0.4473889 
C     0.4262902   -3.9909984    0.2925029 
C    -1.0046412   -3.0961898   -1.5775462 
C    -0.8949005   -3.8414349   -0.3350796 
