60 

C     1.5434087   -3.8128180    0.1032938 
C     0.5600559   -3.9628719   -0.8905217 
C    -0.7394362   -3.9807686   -0.2864621 
C     0.8400267   -3.6062026    1.3567466 
C    -0.5689853   -3.6289450    1.1198805 
C     1.4167875   -2.4943032    2.0076309 
C     2.5365729   -2.7855955   -0.0160422 
C     2.5427554   -2.0144830    1.2013244 
C     2.6435489   -2.0593282   -1.2246189 
C     0.5230996   -3.0503921   -2.0245767 
C     1.5981161   -2.1895557   -2.2382143 
C    -1.6039111   -3.1955835   -1.0935902 
C    -0.8199128   -2.5455796   -2.1715874 
C    -2.6296269   -2.5047761   -0.4893432 
C    -1.4248313   -2.6444240    1.7154712 
C    -2.6136288   -2.3269037    0.9730357 
C     0.6017059   -1.5565320    2.7089969 
C    -0.8493259   -1.5884956    2.5745896 
C     1.2654927   -0.3211206    3.0058647 
C     2.9729454   -0.6472481    1.2289888 
C     2.4513450    0.1355126    2.2766363 
C     3.1069183   -0.6987320   -1.2346207 
C     3.3747970    0.0179652   -0.0250291 
C     1.3613956   -0.8803724   -2.7837703 
C     2.4488832   -0.0300858   -2.3421313 
C    -1.0864740   -1.2100446   -2.5707504 
C     0.0550895   -0.3486377   -2.9466400 
C    -3.1230275   -1.2883910   -1.0818548 
C    -2.3412932   -0.5916052   -2.1002496 
C    -3.3178655   -1.1387644    1.2166408 
C    -3.7406767   -0.5490284   -0.0424941 
C    -1.5857922   -0.3241867    2.7489329 
C    -2.7943848   -0.1010873    2.0315764 
C     0.5105778    0.8112103    3.3313116 
C    -0.8687905    0.8701430    3.0879683 
C     2.3650727    1.5988256    2.1605226 
C     1.1687428    2.0160269    2.8190616 
C     3.3137282    1.4476944   -0.0967300 
C     2.7443161    2.2401194    0.9937269 
C     2.3278751    1.3467469   -2.3599128 
C     2.9222670    2.0865562   -1.2998193 
C    -0.0876017    1.1161123   -2.9356488 
C     1.0431497    1.9485688   -2.6910215 
C    -2.4747734    0.8108505   -2.1436904 
C    -1.3743948    1.6723169   -2.6038359 
C    -3.6198201    0.8537778    0.0505641 
C    -3.0353505    1.1687802    1.3400394 
C    -3.1528210    1.5403517   -1.0823220 
C    -1.1001583    2.1420875    2.4136016 
C     0.2079063    2.8144347    2.2040590 
C    -2.1322708    2.2843946    1.4736359 
C     1.8543631    3.2578052    0.4229060 
C     2.0353659    3.1884694   -0.9871310 
C     0.9290191    3.1668203   -1.8773655 
C     0.5240848    3.4793894    0.9587007 
C    -1.4714155    2.9176795   -1.9479365 
C    -2.4727496    2.7795703   -0.9095591 
C    -1.8897791    3.1394713    0.3205422 
C    -0.3246657    3.5504187   -1.3887800 
C    -0.5456499    3.6747628    0.0400001 
