60 

C     0.9072598    1.5909926   -3.3745626 
C     2.1118194    1.1469425   -2.8072558 
C     2.4098360    2.0463618   -1.6701284 
C     0.3423639    2.6183884   -2.5086644 
C     1.2264248    2.8379592   -1.4086665 
C    -1.0166671    2.3486433   -2.3182985 
C    -0.1374783    0.6910774   -3.7427049 
C    -1.3664125    1.1703692   -3.1256280 
C     0.1374783   -0.6910774   -3.7427049 
C     2.3682249   -0.2756441   -2.6707311 
C     1.3664125   -1.1703692   -3.1256280 
C     3.1600737   -0.7021003   -1.5481792 
C     3.1788725    1.5859150   -0.6236641 
C     3.7332437    0.2549110   -0.6672556 
C     2.7833174    1.8659377    0.7456314 
C     0.7266225    3.0183798   -0.0861251 
C     1.6003913    2.5881954    1.0273143 
C    -1.6003913    2.5881954   -1.0273143 
C    -0.7266225    3.0183798    0.0861251 
C    -2.7833174    1.8659377   -0.7456314 
C    -2.3682249    0.2756441   -2.6707311 
C    -3.1600737    0.7021003   -1.5481792 
C    -0.9072598   -1.5909926   -3.3745626 
C    -2.1118194   -1.1469425   -2.8072558 
C     1.0166671   -2.3486433   -2.3182985 
C    -0.3423639   -2.6183884   -2.5086644 
C     2.7833174   -1.8659377   -0.7456314 
C     1.6003913   -2.5881954   -1.0273143 
C     3.7332437   -0.2549110    0.6672556 
C     3.1600737    0.7021003    1.5481792 
C     3.1788725   -1.5859150    0.6236641 
C     2.3682249    0.2756441    2.6707311 
C     1.0166671    2.3486433    2.3182985 
C     1.3664125    1.1703692    3.1256280 
C    -1.2264248    2.8379592    1.4086665 
C    -0.3423639    2.6183884    2.5086644 
C    -3.1788725    1.5859150    0.6236641 
C    -2.4098360    2.0463618    1.6701284 
C    -3.7332437   -0.2549110   -0.6672556 
C    -3.7332437    0.2549110    0.6672556 
C    -2.4098360   -2.0463618   -1.6701284 
C    -1.2264248   -2.8379592   -1.4086665 
C    -3.1788725   -1.5859150   -0.6236641 
C     0.7266225   -3.0183798    0.0861251 
C    -0.7266225   -3.0183798   -0.0861251 
C     2.4098360   -2.0463618    1.6701284 
C     2.1118194   -1.1469425    2.8072558 
C     1.2264248   -2.8379592    1.4086665 
C     0.9072598   -1.5909926    3.3745626 
C     0.3423639   -2.6183884    2.5086644 
C     0.1374783    0.6910774    3.7427049 
C    -0.9072598    1.5909926    3.3745626 
C    -2.1118194    1.1469425    2.8072558 
C    -0.1374783   -0.6910774    3.7427049 
C    -3.1600737   -0.7021003    1.5481792 
C    -2.7833174   -1.8659377    0.7456314 
C    -1.6003913   -2.5881954    1.0273143 
C    -1.0166671   -2.3486433    2.3182985 
C    -2.3682249   -0.2756441    2.6707311 
C    -1.3664125   -1.1703692    3.1256280 
