60 

C    -1.1360100   -4.5871664    0.2766257 
C    -0.2698579   -4.6781563   -0.8274776 
C     1.0785218   -4.3106714   -0.3857402 
C    -0.3913871   -4.1460905    1.4309881 
C     1.0134427   -4.0369656    1.0404101 
C    -1.0400876   -2.9878974    1.9462758 
C    -2.1814500   -3.6192819   -0.0095376 
C    -2.1898788   -2.6872803    1.0609819 
C    -0.7054518   -3.7521984   -1.8280117 
C    -1.9269654   -3.0857838   -1.3183549 
C     1.5358054   -3.2850948   -1.2427132 
C     0.3997613   -2.9094981   -2.1284495 
C     2.3697549   -2.2391345   -0.7669898 
C     1.7321402   -2.9498284    1.5216483 
C     2.5933911   -2.1959235    0.6430779 
C    -0.3015303   -1.8862940    2.4967532 
C     1.1178007   -1.9450892    2.4032991 
C    -0.9162403   -0.5751427    2.5745715 
C    -2.5376317   -1.3499372    0.8368854 
C    -2.1435658   -0.3659077    1.8341771 
C    -2.1133385   -1.7191565   -1.5621450 
C    -2.7038428   -0.8814621   -0.5280744 
C     0.2164498   -1.5560589   -2.5019394 
C    -1.1541404   -1.0373857   -2.4452176 
C     2.4225855   -0.9767283   -1.5111623 
C     1.3265096   -0.6165777   -2.4114041 
C     3.1688708    0.0773540   -0.9298588 
C     2.8509879   -0.9253436    1.2754745 
C     1.8753471   -0.7324418    2.3265038 
C     3.2878924    0.1384149    0.5336820 
C    -0.0987544    0.6030925    2.8808044 
C     1.3285774    0.5532897    2.5824029 
C    -0.7361694    1.8728290    2.8709868 
C    -2.6306844    0.9450919    1.6435606 
C    -2.0537493    2.0117849    2.3426274 
C    -2.8935112    0.5279456   -0.7849248 
C    -3.0332017    1.4187363    0.3114897 
C    -1.3596161    0.3039039   -2.7022089 
C    -2.3876719    1.0682674   -2.0143792 
C     1.0902460    0.7813098   -2.7502638 
C    -0.2552075    1.1983378   -3.0225839 
C     2.9958212    1.4110370   -1.3527852 
C     1.9610019    1.8064467   -2.2420098 
C     2.9814478    1.4844557    0.9651862 
C     1.9967299    1.7148587    1.9804779 
C     2.9822929    2.2906616   -0.2089042 
C    -0.0167047    3.0457696    2.4289969 
C     1.2588263    2.9487183    1.8625262 
C    -2.1090750    3.2016507    1.4822214 
C    -2.6671044    2.8191661    0.2194591 
C    -0.8822052    3.8544807    1.5612344 
C    -2.0011874    2.4247834   -2.0852608 
C    -0.6898732    2.5049733   -2.7208548 
C    -2.0287836    3.2939953   -0.9628771 
C     1.4434457    3.0936611   -1.7691645 
C     2.0395536    3.3314023   -0.4506170 
C     1.2390661    3.7385108    0.6094287 
C    -0.1360419    4.1821215    0.3790704 
C     0.1054694    3.4259477   -1.9754251 
C    -0.7208197    3.9654985   -0.8824924 
