60 

C     0.8117155   -4.3048636   -1.3096107 
C     2.0353306   -3.5303748   -1.1298039 
C     2.3315965   -3.4320322    0.2429557 
C     0.2031535   -4.4230678    0.0011937 
C     1.1282587   -3.9423908    0.9531070 
C    -1.0976761   -3.7851477   -0.0097029 
C    -0.0461110   -3.4648209   -2.0451443 
C    -1.2862158   -3.2469284   -1.3461570 
C     1.9697876   -2.3072055   -1.8919812 
C     0.6442332   -2.2705607   -2.5065166 
C     2.5082164   -1.1058821   -1.3791253 
C     2.6812160   -2.1975237    0.8201480 
C     2.9412891   -1.0481034    0.0117934 
C     0.7803172   -3.0042767    1.9589324 
C     1.8181156   -1.9920649    1.9816931 
C    -1.5621653   -3.0159462    1.1096598 
C    -0.5914806   -2.6097506    2.1499947 
C    -2.6335914   -2.1342742    0.8335923 
C    -2.0357955   -2.0767914   -1.5817161 
C    -2.9602861   -1.7447426   -0.5414413 
C    -0.0513419   -1.0675723   -2.7093550 
C    -1.4775204   -0.9865290   -2.3843187 
C     2.0596461    0.1237676   -2.0230504 
C     0.7660284    0.1458543   -2.7242470 
C     2.5901511    1.3221671   -1.5303311 
C     3.0098720    0.2408222    0.6678585 
C     3.1538824    1.3719170   -0.1809024 
C     1.5961277   -0.7002977    2.4989181 
C     2.3770883    0.4206505    1.9767547 
C    -0.7914976   -1.3701398    2.8027049 
C     0.3035626   -0.4613023    3.0411402 
C    -2.9401702   -0.9843293    1.6725138 
C    -1.9779548   -0.5578408    2.5945115 
C    -3.5638284   -0.4797876   -0.5063208 
C    -3.5611771    0.0085594    0.8702200 
C    -2.0898609    0.3204925   -2.3133309 
C    -3.1433980    0.5649895   -1.3560412 
C     0.1235745    1.3773262   -2.9218721 
C    -1.3221600    1.4665370   -2.7089981 
C     1.9588740    2.6107722   -1.8095053 
C     0.7197929    2.6211618   -2.4943759 
C     2.9067381    2.6837260    0.3075181 
C     2.1477934    3.4577848   -0.6958732 
C     1.9533764    1.7273657    2.3418306 
C     2.2948622    2.8526351    1.5439091 
C    -0.2312536    0.8825224    3.0793739 
C    -1.6262457    0.8440321    2.6826579 
C     0.5751079    1.9447162    2.7646565 
C    -3.1519477    1.3570267    0.8654410 
C    -3.0949782    1.7760785   -0.5306109 
C    -2.1486546    1.8290057    1.7918826 
C    -1.5831390    2.7427933   -2.1523427 
C    -0.3317638    3.4398196   -1.9838640 
C    -2.2837328    2.8226761   -0.9025748 
C     1.0201174    4.0651662   -0.0403139 
C     1.0980020    3.6980216    1.3432374 
C     0.0239865    3.0831587    2.0040915 
C    -1.2840140    2.9565822    1.3869004 
C    -0.2523448    3.9898319   -0.6620535 
C    -1.4115086    3.4965870    0.0722901 
