60 

C    -2.6533508   -2.8055981    0.9533658 
C    -1.6648330   -2.9834360    1.9329294 
C    -0.5906433   -3.7723936    1.3638476 
C    -2.1816176   -3.3928860   -0.2776097 
C    -0.8590066   -3.9181547   -0.0517836 
C    -2.4332007   -2.4315796   -1.2970547 
C    -3.1790163   -1.5000150    0.7089311 
C    -3.1390585   -1.2695480   -0.7077130 
C    -2.8727186   -0.4197670    1.5965871 
C    -1.1155240   -1.8355175    2.6003141 
C    -1.7280608   -0.5519353    2.5087115 
C     0.6272390   -3.2039231    1.7952620 
C     0.3253092   -1.9794886    2.5815105 
C     1.7266700   -3.1916606    0.9449548 
C     0.1890450   -3.6373356   -0.9990293 
C     1.5258844   -3.4804206   -0.4875949 
C    -1.4404480   -2.1737112   -2.2375489 
C    -0.1477778   -2.8089916   -2.1379269 
C    -1.2631254   -0.8130611   -2.7638473 
C    -3.0233834    0.0430405   -1.2450993 
C    -2.0841955    0.2736643   -2.3499297 
C    -3.1746285    0.8579708    1.0781049 
C    -3.2687981    1.1092109   -0.3378033 
C    -2.5673152    2.0052954    1.6570836 
C    -0.8797692    0.6043086    2.7684646 
C    -1.4024700    1.9050743    2.4427041 
C     1.1869630   -0.8683663    2.6162435 
C     0.5677500    0.4470573    2.8427525 
C     2.6956885   -2.1416214    1.0695375 
C     2.4795444   -0.9941220    1.9111041 
C     2.4893484   -2.7086729   -1.1867875 
C     3.2426998   -1.9343508   -0.2353317 
C     0.8010069   -1.8680484   -2.6909755 
C     0.1211847   -0.6376964   -3.0450342 
C     2.1123193   -1.8029501   -2.2281318 
C     0.7477925    0.6405543   -2.9188055 
C    -1.5339138    1.5721510   -2.5305972 
C    -0.1439977    1.7385695   -2.8383052 
C    -2.7773435    2.4736438   -0.5874068 
C    -2.4121734    3.0546070    0.6652827 
C    -1.9478087    2.7153895   -1.6925938 
C    -0.5488537    3.0263085    2.0359866 
C    -1.1644673    3.7051607    0.8781569 
C     1.3673504    1.6035002    2.5873090 
C     0.8090893    2.8699559    2.1058101 
C     3.1451742    0.2007548    1.5244112 
C     2.6298708    1.4486365    1.9625779 
C     3.4854441   -0.6269855   -0.7522971 
C     2.7215674   -0.4833277   -1.9749943 
C     2.0646299    0.7383929   -2.2791867 
C     3.5718729    0.4202498    0.1512024 
C     1.6606549    3.3317599    0.9897904 
C     2.7633182    2.4441777    0.9256616 
C     2.3743368    1.9241692   -1.4499667 
C     3.1500712    1.7460268   -0.2580065 
C     0.2846280    2.9687412   -2.2164299 
C    -0.8296696    3.5832273   -1.5359205 
C    -0.3642432    4.0054183   -0.2450163 
C     1.4537371    3.0353486   -1.4411770 
C     1.0712217    3.7431993   -0.1986929 
