60 

C    -1.4469555   -4.7313198    0.2832054 
C    -0.1238232   -5.0307493   -0.0763931 
C     0.7759380   -4.4419302    0.8924423 
C    -1.3839760   -3.9038610    1.4794944 
C    -0.0002598   -3.6806309    1.8556053 
C    -2.1613422   -2.7303465    1.2789761 
C    -1.9636368   -3.8506130   -0.7460671 
C    -2.5434282   -2.7047965   -0.1353328 
C     0.1933159   -4.3757863   -1.3495588 
C    -0.9494772   -3.5914036   -1.7555079 
C     1.8509242   -3.8026492    0.1879173 
C     1.4727524   -3.7497801   -1.2469189 
C     2.4231995   -2.6827443    0.7564162 
C     0.4498915   -2.3735322    2.2792657 
C     1.7782170   -2.0153760    1.8876987 
C    -1.8359071   -1.5024694    1.9223718 
C    -0.5092504   -1.2622408    2.4655160 
C    -2.5444687   -0.3980847    1.4269265 
C    -2.5930845   -1.4597008   -0.8094785 
C    -2.9709326   -0.3848303    0.0288668 
C    -0.7644794   -2.2544284   -2.2735674 
C    -1.7040950   -1.1829731   -1.9257372 
C     1.6917077   -2.5580836   -1.9377024 
C     0.5748116   -1.8425481   -2.5362633 
C     2.9868518   -1.6319905   -0.0740380 
C     2.6003785   -1.5513509   -1.4241110 
C     2.1748509   -0.6531754    1.8608993 
C     2.9995218   -0.4253481    0.6815839 
C    -0.0692087    0.1184844    2.5851555 
C     1.3448306    0.3913869    2.3702164 
C    -2.2331729    0.9385367    1.7832996 
C    -0.9830192    1.2609814    2.3754365 
C    -2.9647724    0.9421873   -0.4211836 
C    -2.7781833    1.7927602    0.7497747 
C    -1.3927400    0.2081950   -2.1882955 
C    -2.2215747    1.2593051   -1.6092339 
C     0.9236640   -0.4502787   -2.5841217 
C     2.2053508   -0.2657961   -1.9445804 
C    -0.0310307    0.5880290   -2.5441614 
C     2.9815251    0.8430923    0.0763054 
C     2.5074494    0.9566910   -1.3025492 
C     1.7710635    1.6995444    2.0750539 
C     2.6843224    1.9095199    0.9603022 
C    -0.5049243    2.6568387    2.2094522 
C     0.9151461    2.8683681    2.1820629 
C    -2.3803611    3.0889411    0.6203268 
C    -1.3133075    3.6172826    1.4601211 
C    -1.8255311    2.6117713   -1.7486696 
C    -2.2144822    3.6073836   -0.7325538 
C     0.4655628    1.9474046   -2.3388043 
C     1.7739763    2.1379285   -1.7060670 
C    -0.5114327    2.9782880   -2.1996019 
C     2.4077132    3.1703092    0.4328137 
C     1.4713950    3.8770646    1.3218135 
C     1.9828006    3.3399809   -0.9237495 
C    -0.7173494    4.6787116    0.6754009 
C    -1.2810380    4.6357831   -0.6832343 
C    -0.1893846    4.2623672   -1.5818820 
C     0.6836025    4.7086586    0.5395600 
C     1.0158661    4.3930227   -0.9049164 
