60 

C     2.1036362   -4.1625307    0.2017308 
C     0.9406100   -4.5997957    0.7910588 
C    -0.1522968   -4.4675547   -0.1801264 
C     1.7613538   -3.6615612   -1.1573464 
C     0.3518551   -3.8702610   -1.4025642 
C     2.3002705   -2.3756692   -1.2919311 
C     2.6255550   -3.0408146    0.9593813 
C     2.8810405   -2.0129292    0.0327103 
C     0.6352842   -3.7160397    1.9251682 
C     1.6870293   -2.7191623    2.0224408 
C    -1.2165586   -3.8264687    0.4859365 
C    -0.6813619   -3.2569753    1.7658897 
C    -2.0959556   -3.0578746   -0.2606493 
C    -0.3976160   -2.8327551   -2.0502942 
C    -1.7486772   -2.6497038   -1.6120342 
C     1.6518076   -1.3494903   -2.0545128 
C     0.2956017   -1.6198748   -2.5320385 
C     2.1179718   -0.0035380   -1.8677277 
C     2.8168242   -0.6788544    0.4260203 
C     2.8594770    0.2938987   -0.6449638 
C     1.3479626   -1.3593369    2.2745650 
C     2.1735978   -0.3230950    1.6640405 
C    -1.0695092   -1.9302394    2.1336715 
C    -0.0370985   -0.9770629    2.5145288 
C    -2.8283159   -1.9954435    0.3618493 
C    -2.3319166   -1.4367548    1.5969987 
C    -2.4816983   -1.4417151   -1.8624537 
C    -3.2708524   -1.1041739   -0.6811986 
C    -0.4841289   -0.4857971   -2.8716133 
C    -1.8951637   -0.4027585   -2.5744493 
C     1.3802899    1.1175914   -2.4281001 
C     0.0444684    0.8552546   -2.8256025 
C     1.6727684    2.4518190   -2.0388946 
C     3.0658778    1.5997917   -0.2337960 
C     2.7375668    2.7065954   -1.0929668 
C     1.9425954    1.0708156    1.9272227 
C     2.7064184    1.9962645    1.1411112 
C    -0.3671358    0.4433288    2.6400602 
C     0.6741740    1.4790429    2.5081303 
C    -2.6863721   -0.0970511    1.8741891 
C    -1.7215869    0.8190638    2.4733970 
C    -3.5933049    0.2200784   -0.3975495 
C    -3.4881130    0.6472896    0.9562940 
C    -2.2064459    0.9875564   -2.2699124 
C    -1.0098247    1.7770201   -2.4762427 
C    -3.0748525    1.3108885   -1.2329197 
C     0.6182960    3.4115082   -1.7423686 
C    -0.7428737    2.9860683   -1.7617814 
C     2.4437705    3.8442044   -0.3159387 
C     2.3626520    3.3772266    1.0783713 
C     1.1200776    4.2716697   -0.6790815 
C     0.2843528    2.8449960    2.2936697 
C     1.1266842    3.7695346    1.6217200 
C     0.3420491    4.3417559    0.4999145 
C    -2.0495971    2.1510505    1.9936430 
C    -3.0253331    2.0054797    0.9630642 
C    -2.7428605    2.4424671   -0.3687038 
C    -1.6214315    3.2910126   -0.6044477 
C    -1.0715476    3.0998275    1.8195053 
C    -0.9794897    3.8421810    0.5659268 
