60 

C     0.0000000    4.5538831    1.8414835 
C     1.1525772    3.7012043    2.0519221 
C     1.9919960    3.6999563    0.9110826 
C     0.0000000    4.8561376    0.4395943 
C     1.2414499    4.4017000   -0.1435424 
C    -1.2414499    4.4017000   -0.1435424 
C    -1.1525772    3.7012043    2.0519221 
C    -1.9919960    3.6999563    0.9110826 
C     0.7273898    2.4170061    2.5508747 
C    -0.7273898    2.4170061    2.5508747 
C     1.4084405    1.2267714    2.1892167 
C     2.4787527    2.4776250    0.3731352 
C     2.3399714    1.2364297    1.0664499 
C     1.2463087    3.5872584   -1.2869513 
C     2.1644907    2.4591184   -1.0354307 
C    -1.2463087    3.5872584   -1.2869513 
C     0.0000000    3.2649365   -1.9720107 
C    -2.4787527    2.4776250    0.3731352 
C    -2.1644907    2.4591184   -1.0354307 
C    -1.4084405    1.2267714    2.1892167 
C    -2.3399714    1.2364297    1.0664499 
C     0.7241851    0.0000000    2.4592234 
C    -0.7241851    0.0000000    2.4592234 
C     1.4084405   -1.2267714    2.1892167 
C     2.5243050    0.0000000    0.3400552 
C     2.3399714   -1.2364297    1.0664499 
C     2.1100064    1.2577932   -1.7618017 
C     2.4516948    0.0000000   -1.1121794 
C     0.0000000    2.1155124   -2.7591167 
C     1.1630165    1.2298200   -2.8499433 
C    -2.1100064    1.2577932   -1.7618017 
C    -1.1630165    1.2298200   -2.8499433 
C    -2.5243050    0.0000000    0.3400552 
C    -2.4516948    0.0000000   -1.1121794 
C    -1.4084405   -1.2267714    2.1892167 
C    -2.3399714   -1.2364297    1.0664499 
C     0.7273898   -2.4170061    2.5508747 
C    -0.7273898   -2.4170061    2.5508747 
C     1.1525772   -3.7012043    2.0519221 
C     2.4787527   -2.4776250    0.3731352 
C     1.9919960   -3.6999563    0.9110826 
C     2.1100064   -1.2577932   -1.7618017 
C     2.1644907   -2.4591184   -1.0354307 
C     0.7368614    0.0000000   -3.3670731 
C    -0.7368614    0.0000000   -3.3670731 
C     1.1630165   -1.2298200   -2.8499433 
C    -2.1100064   -1.2577932   -1.7618017 
C    -1.1630165   -1.2298200   -2.8499433 
C     0.0000000   -2.1155124   -2.7591167 
C    -2.4787527   -2.4776250    0.3731352 
C    -2.1644907   -2.4591184   -1.0354307 
C    -1.1525772   -3.7012043    2.0519221 
C     0.0000000   -4.5538831    1.8414835 
C    -1.9919960   -3.6999563    0.9110826 
C     1.2414499   -4.4017000   -0.1435424 
C     1.2463087   -3.5872584   -1.2869513 
C     0.0000000   -3.2649365   -1.9720107 
C    -1.2463087   -3.5872584   -1.2869513 
C     0.0000000   -4.8561376    0.4395943 
C    -1.2414499   -4.4017000   -0.1435424 
