60 

C     0.1741340   -4.3306685    0.3177170 
C     1.3785872   -3.8659156    0.7911180 
C     2.1902563   -3.4421737   -0.3608463 
C     0.1763982   -4.1272666   -1.1714727 
C     1.3407485   -3.3954509   -1.5287142 
C    -1.0739775   -3.6579637   -1.5106292 
C    -1.0457958   -3.8145136    0.8387150 
C    -1.9173003   -3.6594165   -0.2992754 
C    -0.9982416   -2.7475144    1.8484966 
C     1.4768434   -2.8217324    1.7850072 
C     0.2987914   -2.1750070    2.2688820 
C     2.9990708   -2.3755324    0.0280216 
C     2.6335824   -2.0314437    1.4126302 
C     3.1853949   -1.3253040   -0.8870297 
C     1.1983053   -2.1214348   -2.2127263 
C     2.2370327   -1.1807739   -1.9909751 
C    -1.2683745   -2.3910949   -2.1586537 
C    -0.1453212   -1.5693072   -2.4916410 
C    -2.8019687   -2.5988167   -0.3815579 
C    -2.4658296   -1.8007117   -1.5757531 
C    -2.1185971   -1.9004152    1.9039181 
C    -3.1037464   -1.9179495    0.8251206 
C    -2.0533757   -0.5140263    2.3984519 
C     0.3787326   -0.7316984    2.6183936 
C    -0.8026729    0.1329202    2.6218742 
C     2.7328181   -0.7238822    1.8128327 
C     1.6308598   -0.0811986    2.4893061 
C     3.5185649   -0.0216032   -0.4109903 
C     3.3674346    0.2719737    0.9612492 
C     2.0523201    0.2203557   -2.2169999 
C     2.9858599    0.9366844   -1.3702311 
C    -0.3590959   -0.1165164   -2.5656817 
C     0.7777138    0.7954528   -2.5277172 
C    -2.6918009   -0.4245250   -1.6071375 
C    -1.6809571    0.4297395   -2.2464711 
C    -3.5982975   -0.6284290    0.6970703 
C    -3.1093906    0.2101646    1.7952227 
C    -3.4840537    0.1201676   -0.5109400 
C    -2.9439013    1.5094003    1.3269558 
C    -3.3030558    1.4731374   -0.1229675 
C    -0.7031391    1.5870104    2.3678729 
C    -1.8268582    2.2849518    1.7307420 
C     1.7470395    1.3409723    2.2670786 
C     2.8732409    1.5515426    1.3648873 
C     0.6189747    2.2052224    2.2556263 
C     2.7420607    2.2350529   -1.0021883 
C     2.8102379    2.5980594    0.4294869 
C     0.6185794    2.2419860   -2.3057296 
C     1.6631565    2.9745406   -1.6184940 
C    -1.8088273    1.8242288   -2.0584959 
C    -2.6905973    2.3531471   -0.9898671 
C    -0.7205370    2.7523239   -2.1780004 
C    -1.6003449    3.4709096    0.9278815 
C    -2.1099931    3.5133371   -0.4530392 
C    -1.0040741    3.8729645   -1.2941888 
C     0.7754429    3.4656563    1.5498172 
C     1.8777104    3.6116769    0.6335379 
C     1.3114137    3.9993988   -0.6759315 
C    -0.3486672    4.0968427    0.9337334 
C     0.0074867    4.4124657   -0.4773013 
