60 

C     2.4889385   -3.4993079   -0.1847788 
C     1.3600430   -3.8855079   -0.9092399 
C     0.3034219   -4.1321973    0.0555033 
C     2.0627358   -3.2340694    1.2269460 
C     0.7014820   -3.5398048    1.3354522 
C     2.5684647   -1.9510373    1.6015645 
C     3.2089515   -2.3926134   -0.5966648 
C     3.4820982   -1.5345442    0.5689056 
C     2.7274305   -1.5444826   -1.6538365 
C     0.7945394   -3.0256179   -1.9237127 
C     1.4320155   -1.7854578   -2.2601707 
C    -0.9199102   -3.8054151   -0.5082175 
C    -0.6493010   -3.0556408   -1.7498305 
C    -1.9257182   -3.3496596    0.3599332 
C    -0.1974679   -2.6088573    1.9976974 
C    -1.5551954   -2.6914004    1.6368887 
C     1.7066944   -0.9727327    2.2278974 
C     0.3155981   -1.3106984    2.4711354 
C     2.1066266    0.4331610    2.0900339 
C     3.4831304   -0.2173877    0.1352935 
C     3.0864540   -0.2124964   -1.2785185 
C     3.0055375    0.8202053    0.9828829 
C     2.4783585    0.9193284   -1.8319759 
C     0.6033111   -0.6143628   -2.5901687 
C     1.2262398    0.7190481   -2.5704312 
C    -1.4717372   -1.9685956   -2.0924600 
C    -0.8467176   -0.7131436   -2.5331113 
C    -2.9835574   -2.6476708   -0.1995043 
C    -2.7850099   -1.9267232   -1.4343033 
C    -2.4934462   -1.6029954    1.8385457 
C    -3.4715519   -1.6820847    0.7951109 
C    -0.6409630   -0.2290112    2.7122893 
C    -2.0430480   -0.3315428    2.2950644 
C     1.2497874    1.4189602    2.5941010 
C    -0.1147017    1.0753176    2.9221935 
C     1.2571264    2.7919834    2.0723564 
C     2.8571169    2.0645194    0.3541905 
C     2.7172901    2.1385423   -1.1065143 
C     2.0541768    3.1214786    0.9411146 
C     1.9272757    3.2721553   -1.3692210 
C     1.5060313    3.9134785   -0.0969230 
C     0.4046653    1.8713898   -2.7021124 
C     0.8074127    3.1493312   -2.1834703 
C    -1.6358798    0.5216539   -2.4105952 
C    -1.0083489    1.7621419   -2.4884432 
C    -3.4724175   -0.6967818   -1.2914125 
C    -3.8834811   -0.5460674    0.1204345 
C    -2.8926995    0.5126238   -1.6778940 
C    -2.7082385    0.8712557    1.7472029 
C    -3.5009627    0.7342454    0.5662788 
C    -3.0985774    1.4907161   -0.6143186 
C    -0.9098990    2.2392285    2.6667964 
C    -0.0611752    3.2898880    2.1213533 
C    -2.0640869    2.1323182    1.8892640 
C     0.1025691    4.1842141   -0.1601558 
C    -0.3333972    3.7556947   -1.4822014 
C    -1.4244395    2.9108189   -1.6374143 
C    -2.3129805    2.6519007   -0.5262588 
C    -0.7008610    3.8523673    0.9645964 
C    -1.9197529    3.0899418    0.7728327 
