60 

C     0.5304021    4.5703636    0.8595156 
C     1.2461698    4.2374545   -0.3713913 
C     0.3339596    4.0222411   -1.4116126 
C    -0.8597933    4.3418650    0.5970838 
C    -1.0207118    4.1150549   -0.8033432 
C    -1.3505627    3.3071228    1.4953144 
C     0.9348783    3.5800566    1.7928021 
C    -0.2045330    2.8208392    2.2410945 
C     2.2066117    3.2012632   -0.1153228 
C     2.0213444    2.7936677    1.2719983 
C     2.4603110    2.1855853   -1.0768923 
C     0.3782454    2.8148109   -2.1772979 
C     1.4687823    1.8957373   -2.1196365 
C    -1.7777963    3.0342042   -1.2675230 
C    -0.9573705    2.2753800   -2.2215768 
C    -2.3394767    2.3808618    1.0668762 
C    -2.6380569    2.2916516   -0.3748825 
C    -2.4181076    1.1706527    1.8065961 
C    -0.0746660    1.4348187    2.5976776 
C    -1.2847933    0.7058219    2.5722872 
C     2.2164437    1.4326023    1.6726210 
C     1.1807161    0.7096210    2.4085458 
C     3.1986589    1.1014201   -0.5550416 
C     3.0802694    0.7105402    0.8262688 
C     3.2880884   -0.1013057   -1.2849649 
C     1.2270009    0.4951471   -2.4972591 
C     2.2482549   -0.4640242   -2.1925738 
C    -1.2205951    0.9239257   -2.5094142 
C    -0.1173691   -0.0210062   -2.6889234 
C    -3.1215417    1.0839364   -0.8833901 
C    -2.4987559    0.4638064   -2.0584393 
C    -3.0864606    0.0029654    1.3081206 
C    -3.5452887   -0.0119353   -0.0201841 
C    -1.2937913   -0.7255981    2.5919661 
C    -2.4502752   -1.1836365    1.8577037 
C     1.1858696   -0.7419828    2.4056473 
C    -0.0816777   -1.4642710    2.6135789 
C     3.1740859   -0.7374007    0.8926327 
C     3.5246619   -1.2137247   -0.4004785 
C     2.2658693   -1.4707015    1.7276681 
C     1.9915406   -1.8799570   -2.0226290 
C     2.8455236   -2.3428228   -0.9242191 
C    -0.3823237   -1.4615983   -2.5373190 
C     0.6882173   -2.4135237   -2.1808156 
C    -2.7372469   -0.9085902   -2.0014346 
C    -3.4255472   -1.2293659   -0.7529419 
C    -1.7127803   -1.8629860   -2.2122476 
C    -2.4134146   -2.4219813    1.1630351 
C    -2.8670290   -2.3984078   -0.2240460 
C    -1.9574616   -2.9415372   -1.2450530 
C    -0.1978234   -2.8460101    2.2567280 
C    -1.3576458   -3.3128915    1.4882352 
C     2.0797840   -2.8481722    1.3633999 
C     2.3698732   -3.2835983   -0.0248225 
C     0.9396290   -3.5849884    1.8064758 
C     0.3762195   -3.6266728   -1.4544272 
C    -0.9697475   -3.8207393   -0.8958700 
C    -0.8616504   -4.2465484    0.5015125 
C     1.2600138   -4.0778901   -0.4288450 
C     0.5028695   -4.4595496    0.7494330 
