60 

C    -1.8220106   -4.0521442    0.1469275 
C    -0.4190640   -4.2084613   -0.0266499 
C     0.2633851   -3.6908735    1.1111893 
C    -2.0291131   -3.2387786    1.3362786 
C    -0.7534528   -2.9947833    1.9212710 
C    -2.8128537   -2.0987278    0.9982724 
C    -2.2840784   -3.2775637   -0.9481689 
C    -3.0715972   -2.1884654   -0.4521409 
C    -0.0400866   -3.6758561   -1.3375160 
C    -1.1994852   -3.0058782   -1.8878905 
C     1.2039357   -3.0885753   -1.4690226 
C     1.5742883   -3.1555799    0.9896964 
C     2.1167054   -2.9812851   -0.3370439 
C     1.9527313   -2.1848261    1.9711497 
C    -0.4522363   -1.7086961    2.4861746 
C     0.9215370   -1.4082892    2.6377662 
C    -2.5815822   -0.8074421    1.5730388 
C    -1.3923409   -0.5995255    2.3722439 
C    -3.1771929    0.3335014    0.8785311 
C    -3.1077027   -1.0274837   -1.1893965 
C    -3.3998746    0.2196980   -0.5325585 
C    -1.0764914   -1.7015304   -2.4612467 
C    -2.1518097   -0.7795368   -2.2487489 
C     1.3683837   -1.8872938   -2.2676875 
C     0.2483889   -1.1161198   -2.6897595 
C     3.0352890   -1.9084472   -0.6177249 
C     2.6072075   -1.2692221   -1.8497840 
C     3.0150477   -1.2862636    1.7191583 
C     3.5484836   -1.0926575    0.4166776 
C     1.4054819   -0.0299229    2.7902760 
C     2.7266969    0.0180406    2.2912091 
C    -0.9024399    0.7718648    2.5849013 
C     0.5310396    1.0632590    2.6559725 
C    -2.9108044    1.6311346    1.3766507 
C    -1.7666003    1.8339445    2.2568197 
C    -2.9695888    2.7748649    0.5143821 
C    -2.9152525    1.2648952   -1.3833366 
C    -1.9659886    0.6402718   -2.2969097 
C    -2.7053881    2.5395968   -0.8769064 
C     0.4181624    0.3430288   -2.8032036 
C    -0.7011833    1.2514098   -2.5635391 
C     2.8098071    0.0762616   -2.0630362 
C     1.7408111    0.8697073   -2.6319799 
C     3.7118364    0.3447650    0.2197345 
C     3.1283297    1.0251271    1.3835518 
C     3.4863204    0.8972909   -1.0406233 
C     1.0832181    2.2967766    2.0368392 
C     2.3309210    2.2058979    1.2579538 
C    -1.2294981    3.1529882    1.9870178 
C    -2.0219983    3.7542491    0.9672419 
C     0.1719661    3.3212144    1.7080636 
C    -1.4985282    3.2690379   -1.2590175 
C    -0.4903863    2.6288822   -2.0548071 
C    -1.1201416    4.0456575   -0.1078428 
C     0.2335033    3.9613339    0.3928654 
C     1.9159511    2.1956125   -2.1498847 
C     2.9548530    2.2058641   -1.1287409 
C     2.3897781    2.8790416   -0.0136627 
C     0.8552793    3.0489072   -1.7982855 
C     1.2194319    3.6001039   -0.4947400 
