60 

C     0.0000000    0.7438022   -4.5452716 
C    -1.1370526    1.1741935   -3.8162441 
C    -0.7184382    2.0658364   -2.7327461 
C     1.1370526    1.1741935   -3.8162441 
C     0.7184382    2.0658364   -2.7327461 
C     1.9095325    0.0000000   -3.4381370 
C     0.0000000   -0.7438022   -4.5452716 
C     1.1370526   -1.1741935   -3.8162441 
C    -1.9095325    0.0000000   -3.4381370 
C    -1.1370526   -1.1741935   -3.8162441 
C    -2.5996490    0.0000000   -2.2426321 
C    -1.4104009    2.0729440   -1.5164851 
C    -2.6076909    1.2348092   -1.4463052 
C    -0.7224368    2.3766076   -0.2511310 
C     1.4104009    2.0729440   -1.5164851 
C     0.7224368    2.3766076   -0.2511310 
C     2.5996490    0.0000000   -2.2426321 
C     2.6076909    1.2348092   -1.4463052 
C     2.6076909   -1.2348092   -1.4463052 
C     0.7184382   -2.0658364   -2.7327461 
C    -0.7184382   -2.0658364   -2.7327461 
C     1.4104009   -2.0729440   -1.5164851 
C    -2.6076909   -1.2348092   -1.4463052 
C    -1.4104009   -2.0729440   -1.5164851 
C    -3.3288030   -1.2306291   -0.2783238 
C    -3.3288030    1.2306291   -0.2783238 
C    -4.0223219    0.0000000    0.1191914 
C    -1.4675973    2.2580755    1.0062007 
C    -2.8515610    1.8706303    0.9342253 
C    -0.7270225    1.9927782    2.2367977 
C     1.4675973    2.2580755    1.0062007 
C     0.7270225    1.9927782    2.2367977 
C     3.3288030    1.2306291   -0.2783238 
C     2.8515610    1.8706303    0.9342253 
C     3.3288030   -1.2306291   -0.2783238 
C     4.0223219    0.0000000    0.1191914 
C     2.8515610   -1.8706303    0.9342253 
C     0.7224368   -2.3766076   -0.2511310 
C    -0.7224368   -2.3766076   -0.2511310 
C     1.4675973   -2.2580755    1.0062007 
C    -2.8515610   -1.8706303    0.9342253 
C    -1.4675973   -2.2580755    1.0062007 
C    -4.2328225    0.0000000    1.4829263 
C    -3.5090739    1.1703572    2.0135849 
C    -3.5090739   -1.1703572    2.0135849 
C    -1.3976171    1.1795121    3.2347834 
C    -2.7290471    0.7541371    3.0907089 
C    -2.7290471   -0.7541371    3.0907089 
C     0.7270225   -1.9927782    2.2367977 
C    -0.7270225   -1.9927782    2.2367977 
C    -0.6733095    0.0000000    3.6737918 
C    -1.3976171   -1.1795121    3.2347834 
C     1.3976171    1.1795121    3.2347834 
C     0.6733095    0.0000000    3.6737918 
C     1.3976171   -1.1795121    3.2347834 
C     3.5090739    1.1703572    2.0135849 
C     4.2328225    0.0000000    1.4829263 
C     3.5090739   -1.1703572    2.0135849 
C     2.7290471    0.7541371    3.0907089 
C     2.7290471   -0.7541371    3.0907089 
