60 

C     0.5802916   -5.0336436    0.2118429 
C    -0.5251254   -4.7269250    0.9936513 
C    -1.5399887   -4.0925960    0.1788906 
C     0.2789268   -4.5583134   -1.1744704 
C    -1.0270682   -3.9259103   -1.1789970 
C     1.3574263   -3.7880688   -1.5867182 
C     1.6866306   -4.2510542    0.7127356 
C     2.2594871   -3.5974469   -0.3919423 
C    -0.1667509   -3.7788814    2.0532372 
C     1.2052124   -3.4022402    1.8356486 
C    -2.0485870   -2.9821678    0.8922941 
C    -1.1494507   -2.7614317    2.0534680 
C    -2.5554081   -1.8750547    0.2010189 
C    -1.2246027   -2.6569382   -1.7947554 
C    -2.2647375   -1.7944860   -1.2319455 
C     1.1848761   -2.5131763   -2.1863070 
C    -0.1015141   -1.9490098   -2.4260566 
C     2.6027089   -2.2442779   -0.3450442 
C     2.1430470   -1.6154278   -1.5732688 
C     1.5591410   -2.0256642    1.8989849 
C     2.4446743   -1.4633840    0.8740549 
C    -0.8137355   -1.4297035    2.3635490 
C     0.5858191   -1.0641128    2.4192147 
C    -2.7340516   -0.6423966    0.9529659 
C    -1.8035196   -0.4103965    2.0550770 
C    -3.2429783    0.4785875    0.2649711 
C    -2.4862312   -0.5580456   -1.8413563 
C    -3.2284009    0.4543734   -1.1748943 
C    -0.1679395   -0.5065153   -2.6603447 
C    -1.4340173    0.1083314   -2.6201750 
C     2.0556586   -0.2404050   -1.6715404 
C     0.9774959    0.3721401   -2.4137200 
C     2.6085413   -0.0732957    0.7411061 
C     2.7004679    0.5037150   -0.6083200 
C     0.9241739    0.3321832    2.4711178 
C     2.1056512    0.8241422    1.7796645 
C    -1.4875359    0.9088917    2.4124150 
C    -0.1183997    1.2765498    2.7047133 
C    -2.9419671    1.8369669    0.6855111 
C    -2.1133930    2.0523208    1.7906085 
C    -2.7580384    1.7225427   -1.6202356 
C    -1.5973899    1.5237784   -2.4589340 
C    -2.7027263    2.6306760   -0.5193338 
C     0.8480171    1.8150669   -2.3612805 
C    -0.4928809    2.4154150   -2.3573364 
C     2.7737803    1.8665760   -0.7721141 
C     1.9226356    2.5507500   -1.7438315 
C     2.3087128    2.2074077    1.6343087 
C     2.8963254    2.7199922    0.3965787 
C     0.0506251    2.6858197    2.4433300 
C    -1.1845787    3.1666488    1.8224588 
C     1.3023132    3.1793844    2.0336865 
C    -1.7273045    3.6168842   -0.5324015 
C    -0.6984511    3.6234404   -1.5849435 
C    -1.0889746    4.0352805    0.7142297 
C     1.7323366    3.8756691   -1.2289020 
C     2.3849390    3.9776224    0.0890719 
C     1.3537515    4.2757326    1.0747848 
C     0.4108810    4.3313906   -1.0731925 
C     0.1811995    4.5926896    0.3771715 
