60 

C    -3.3966580    1.4256204   -2.2637537 
C    -4.0595813    0.5241467   -1.4130551 
C    -3.9580094    1.0209375   -0.0492332 
C    -2.6920947    2.3892810   -1.4449116 
C    -2.9988582    2.1428540   -0.0687275 
C    -1.3393807    2.4162244   -1.8644543 
C    -2.4107795    0.7306930   -3.0513565 
C    -1.1722369    1.4230188   -2.9357407 
C    -3.5441899   -0.8116679   -1.7042810 
C    -2.4509690   -0.6587922   -2.6700025 
C    -3.3835708   -1.6965855   -0.6494266 
C    -3.9032833    0.0954381    0.9855166 
C    -3.8143648   -1.3103360    0.6668548 
C    -3.0380673    0.3474309    2.1352493 
C    -1.9744826    2.2441292    0.9093930 
C    -2.1171773    1.4445296    2.1370966 
C    -0.2915300    2.6063397   -0.9263478 
C    -0.6182130    2.6298715    0.4824013 
C     1.0568815    2.2883570   -1.4026687 
C     0.0339419    0.7311964   -3.0531688 
C     1.2323220    1.3674315   -2.5308112 
C    -1.2323220   -1.3674315   -2.5308112 
C    -0.0339419   -0.7311964   -3.0531688 
C    -2.1212092   -2.4353768   -0.4927836 
C    -1.0568815   -2.2883570   -1.4026687 
C    -2.9163958   -1.8882458    1.6102678 
C    -2.5835770   -0.9472880    2.6170019 
C    -1.8367251   -2.5533189    0.9096402 
C    -1.3419923   -1.0718993    3.2446914 
C    -0.9900103    1.3364746    3.0145669 
C    -0.7147154    0.1027444    3.6869419 
C     0.4893465    2.5383542    1.4268197 
C     0.2851323    1.9375438    2.6942812 
C     2.1212092    2.4353768   -0.4927836 
C     1.8367251    2.5533189    0.9096402 
C     3.3835708    1.6965855   -0.6494266 
C     2.4509690    0.6587922   -2.6700025 
C     3.5441899    0.8116679   -1.7042810 
C     1.1722369   -1.4230188   -2.9357407 
C     2.4107795   -0.7306930   -3.0513565 
C     0.2915300   -2.6063397   -0.9263478 
C     1.3393807   -2.4162244   -1.8644543 
C    -0.4893465   -2.5383542    1.4268197 
C    -0.2851323   -1.9375438    2.6942812 
C     0.6182130   -2.6298715    0.4824013 
C     0.7147154   -0.1027444    3.6869419 
C     1.3419923    1.0718993    3.2446914 
C     0.9900103   -1.3364746    3.0145669 
C     2.9163958    1.8882458    1.6102678 
C     3.8143648    1.3103360    0.6668548 
C     2.5835770    0.9472880    2.6170019 
C     1.9744826   -2.2441292    0.9093930 
C     2.1171773   -1.4445296    2.1370966 
C     3.9032833   -0.0954381    0.9855166 
C     3.0380673   -0.3474309    2.1352493 
C     4.0595813   -0.5241467   -1.4130551 
C     3.3966580   -1.4256204   -2.2637537 
C     2.6920947   -2.3892810   -1.4449116 
C     3.9580094   -1.0209375   -0.0492332 
C     2.9988582   -2.1428540   -0.0687275 
