60 

C     0.7156818    4.3538672    1.3472942 
C     1.0112212    4.4451892   -0.0797812 
C    -0.2153420    4.3855580   -0.7650137 
C    -0.6861848    4.0522548    1.5213156 
C    -1.2827179    4.1459779    0.2401460 
C    -0.7990029    2.7939367    2.2375022 
C     1.4574571    3.2650113    1.8554403 
C     0.5634966    2.3395342    2.5026852 
C     2.0270144    3.4666883   -0.3989945 
C     2.3362095    2.7355868    0.8460763 
C     1.8915432    2.7038584   -1.5705712 
C    -0.4299570    3.4521472   -1.8345750 
C     0.6386055    2.6891325   -2.3177804 
C    -2.1085437    3.1093065   -0.2351609 
C    -1.6624296    2.7338251   -1.5738094 
C    -1.7745225    1.8220179    1.8914303 
C    -2.5396425    2.0581318    0.6591288 
C    -1.5689443    0.4459278    2.3265564 
C     0.8700092    0.9776860    2.5440976 
C    -0.2382476    0.0636771    2.7675335 
C     2.6480827    1.3628646    0.8461757 
C     2.0641561    0.4840524    1.8603506 
C     2.4258985    1.3739772   -1.6185736 
C     2.9460409    0.7470320   -0.4464005 
C     0.4311260    1.3218949   -2.7794190 
C     1.6184266    0.5669412   -2.5084326 
C    -1.9010758    1.4285908   -2.0782409 
C    -0.8261283    0.6622311   -2.7249769 
C    -3.1330304    0.9639045    0.0325781 
C    -2.9124606    0.7121971   -1.3869148 
C    -2.4574835   -0.6081174    1.8375753 
C    -3.2581522   -0.3193719    0.6870010 
C    -2.0872666   -1.9846289    2.0175860 
C     0.0932110   -1.2991861    2.8994220 
C    -0.8844942   -2.2970234    2.6813635 
C     2.2894985   -0.9426238    1.7845432 
C     1.3732996   -1.8211707    2.4296072 
C     3.1312131   -0.6339485   -0.5202564 
C     3.0237308   -1.4804701    0.6580981 
C     1.6461057   -0.8459250   -2.4824058 
C     2.6819503   -1.4102037   -1.6676390 
C    -0.8495996   -0.8084584   -2.7191015 
C     0.3945046   -1.5803511   -2.6754651 
C    -3.0392006   -0.6716115   -1.5847105 
C    -3.3952107   -1.3076524   -0.3333095 
C    -2.0349958   -1.4477299   -2.2263972 
C    -2.2235416   -2.9886616    0.9437491 
C    -2.7648500   -2.5719964   -0.2722812 
C    -1.9771756   -2.7197390   -1.5128285 
C    -0.2467077   -3.4530073    2.0681417 
C     1.1450668   -3.1888354    1.9464462 
C    -1.0434966   -3.8428482    0.9528478 
C     2.8211164   -2.8036990    0.2180259 
C     2.6067242   -2.7496712   -1.2437733 
C     1.8242589   -3.6539782    0.7872172 
C     0.3549000   -2.9433277   -2.2074554 
C    -0.8183478   -3.4552582   -1.5074073 
C    -0.3804690   -4.1428087   -0.2750939 
C     1.4802425   -3.5153049   -1.5412119 
C     1.0284297   -4.1753918   -0.3019539 
