60 

C    -0.6364406   -5.1821243   -0.4208845 
C     0.7249312   -5.0105459   -0.3597198 
C     1.1154765   -4.4164912    0.9279047 
C    -1.1760059   -4.6150664    0.8397281 
C    -0.0745476   -4.0803727    1.6599832 
C    -2.1859053   -3.7366077    0.4916291 
C    -1.1245305   -4.3204750   -1.5220507 
C    -2.1839134   -3.5758236   -1.0155168 
C     1.1693560   -4.0696034   -1.3937815 
C     0.0018338   -3.5754376   -2.0934991 
C     2.0941976   -3.4274298    0.6645053 
C     2.0726092   -3.1611147   -0.8097919 
C     2.1493146   -2.3285437    1.5023416 
C    -0.1735078   -2.7648496    2.2573123 
C     1.0419501   -2.0160781    2.3765038 
C    -2.2919942   -2.4287357    1.0467698 
C    -1.3578093   -1.9278741    2.0248168 
C    -2.3099520   -2.2010181   -1.2751316 
C    -2.6760800   -1.5415755   -0.0284782 
C    -0.0945371   -2.1696457   -2.3375403 
C    -1.3619307   -1.4805985   -2.0733320 
C     2.1281029   -1.8183730   -1.2533412 
C     1.0894593   -1.3300917   -2.1410190 
C     2.7065820   -1.0842319    1.0338979 
C     2.7698432   -0.8453789   -0.3724900 
C     1.0704056   -0.5909411    2.5594139 
C     2.2178936   -0.0293113    1.8574472 
C    -1.3042093   -0.4912447    2.1810916 
C    -0.0939123    0.2027473    2.6237754 
C    -2.6063134   -0.1783407    0.1025806 
C    -2.1968239    0.3373537    1.3898594 
C    -1.4288256   -0.0487171   -2.0181832 
C    -2.2914064    0.6244624   -1.0638230 
C     0.9913051    0.0909199   -2.3772622 
C    -0.3170434    0.7318758   -2.5205261 
C     2.7997591    0.4923189   -0.7754812 
C     2.0454529    0.9430675   -1.9265190 
C     2.2576120    1.3284439    1.4606213 
C     2.7828534    1.5845691    0.1558685 
C     0.0428363    1.6490671    2.5264031 
C     1.2783539    2.2521976    2.0146526 
C    -2.1520393    1.7155679    1.5061317 
C    -1.1575475    2.3970658    2.3042615 
C    -2.3202334    2.0437001   -0.9370741 
C    -2.5267723    2.6003305    0.3948195 
C    -0.4224032    2.1301731   -2.5140152 
C    -1.5444853    2.8265232   -1.8663201 
C     1.9093724    2.3653814   -1.8557450 
C     2.4149439    2.7820519   -0.5524966 
C     0.7371976    2.9886694   -2.3427801 
C     1.2421055    3.5759665    1.4668074 
C     1.8119151    3.8290704    0.1411808 
C    -1.1562614    3.7437783    1.8868559 
C    -2.0646055    3.8876720    0.7160755 
C     0.0491092    4.3959662    1.5498723 
C    -1.1415625    4.1485029   -1.5450079 
C     0.3041894    4.2216389   -1.7822737 
C     0.8874357    4.7078433   -0.5701133 
C    -1.3968311    4.7034589   -0.2446306 
C    -0.1379667    5.1462581    0.3257172 
