60 

C     0.6062040   -5.1356511   -0.3115116 
C     1.8643339   -4.5140206   -0.5701612 
C     2.1591501   -3.6482374    0.5385663 
C     0.1449891   -4.6339898    0.9722670 
C     1.0815079   -3.6367311    1.4876508 
C    -1.2234979   -4.2609198    0.9151000 
C    -0.3529808   -4.5388882   -1.2187296 
C    -1.5594925   -4.2116157   -0.5343514 
C     1.6667422   -3.5270055   -1.6064592 
C     0.2888736   -3.4725396   -1.9900618 
C     2.6652791   -2.3673656    0.0914719 
C     2.3331271   -2.2705298   -1.2988038 
C     2.5072912   -1.2374428    0.8843768 
C     0.6418125   -2.3826574    2.0576379 
C     1.5127766   -1.2108861    1.9445899 
C    -1.6669982   -3.0646971    1.4970376 
C    -0.7866015   -2.1122840    2.1713693 
C    -2.1953453   -2.9958171   -0.7797096 
C    -2.5729270   -2.4647585    0.5278537 
C    -0.3373546   -2.1887307   -2.2079089 
C    -1.6835048   -1.9935648   -1.7100961 
C     1.8511422   -1.0525212   -1.8027522 
C     0.5071010   -0.9844276   -2.3393783 
C     2.7912128   -0.0109022    0.1944650 
C     2.4022870    0.1275867   -1.1748746 
C     2.8387425    1.1378330    1.0020422 
C     1.0802286    0.0878243    2.3998624 
C     1.9221358    1.2144534    2.1313059 
C    -1.2606112   -0.7434204    2.3525530 
C    -0.3337527    0.3469656    2.6347852 
C    -2.9770125   -1.1861173    0.6592232 
C    -2.5090840   -0.3662574    1.7565564 
C    -2.2049134   -0.6527635   -1.6008415 
C    -3.0702827   -0.3297762   -0.4966310 
C    -0.0710355    0.3248892   -2.4568722 
C    -1.4958297    0.4639845   -2.1965911 
C     2.0650426    1.4337108   -1.6851020 
C     0.7946206    1.5323103   -2.3936107 
C     2.9623443    2.3862105    0.4001566 
C     2.5939589    2.5685591   -0.9713886 
C     1.4815231    2.5870108    2.2067986 
C     2.2252770    3.3578868    1.2242805 
C    -0.7843846    1.7034255    2.5479909 
C     0.1060440    2.8375075    2.3299487 
C    -2.8109874    0.9853521    1.4170709 
C    -3.1995826    1.0012620   -0.0005272 
C    -2.0253319    2.0255523    1.8930595 
C    -2.0185884    1.7744031   -1.9701570 
C    -2.8220942    2.0650942   -0.7866504 
C     0.1718244    2.8233891   -2.4435380 
C    -1.2263060    2.9094856   -2.2165824 
C     1.9040543    3.8338421   -1.0116587 
C     1.6090306    4.2680628    0.3933165 
C     0.7487305    3.9595911   -1.7348775 
C    -0.5551826    3.8298275    1.4813196 
C    -1.8516903    3.2651234    1.1364705 
C    -2.3233433    3.3083064   -0.1938808 
C    -1.4955161    3.9308743   -1.1845003 
C     0.1921393    4.5476189    0.4950490 
C    -0.3052948    4.5565756   -0.8559683 
