60 

C     0.4866290    4.7305775   -0.7745929 
C    -0.8826722    4.6676822   -0.5965814 
C    -1.1866564    4.2132797    0.7610325 
C     1.0934619    4.2537582    0.4644923 
C     0.0555881    3.8815855    1.4256190 
C     2.0329470    3.2628514    0.1416968 
C     0.8452371    3.7501749   -1.8068452 
C     1.8807963    2.9439560   -1.3088759 
C    -1.4343745    3.6613672   -1.5042347 
C    -0.3442894    3.0459419   -2.2414003 
C    -2.1949291    3.2157947    0.6596805 
C    -2.3136665    2.8320699   -0.7811146 
C    -2.2105813    2.1963979    1.5924868 
C     0.1726989    2.6495967    2.1680318 
C    -1.0396062    1.9300805    2.4137792 
C     2.3293945    2.1984498    1.0271435 
C     1.3882162    1.8251497    2.0785272 
C     3.1403707    1.1962005    0.4348083 
C     2.0269215    1.5948788   -1.7376450 
C     2.9540692    0.8570875   -0.9740548 
C    -0.3375944    1.6278100   -2.4373805 
C     0.9253617    0.8956002   -2.3842428 
C    -2.4548831    1.4724485   -1.1222695 
C    -1.5308877    0.8758446   -2.0854944 
C    -2.8126880    0.9360408    1.2662763 
C    -3.0276961    0.5965771   -0.1093312 
C    -1.0627200    0.5337516    2.7158951 
C    -2.2416940   -0.0688921    2.1141972 
C     1.3849805    0.4316062    2.5269714 
C     0.1225675   -0.2339447    2.8494513 
C     3.3646561   -0.0068453    1.1032719 
C     2.4630308   -0.4337485    2.1182498 
C     3.0762829   -0.5583983   -1.1196866 
C     3.5155256   -1.0854330    0.1383846 
C     0.9488510   -0.5508921   -2.4428948 
C     2.1113408   -1.2734724   -1.8946818 
C    -1.5446565   -0.5488870   -2.2823914 
C    -0.3076955   -1.2681210   -2.6199218 
C    -3.1518556   -0.7547922   -0.4172575 
C    -2.6073787   -1.2819637   -1.6471638 
C    -2.3289560   -1.4479457    1.8095568 
C    -3.0272487   -1.8002103    0.5979901 
C    -0.0237740   -1.6550524    2.7014313 
C    -1.2369381   -2.2744480    2.2147569 
C     2.2776687   -1.8677572    1.9337357 
C     2.9416689   -2.2532704    0.6766848 
C     1.0707244   -2.4758028    2.2465138 
C     1.9702709   -2.6588290   -1.5484367 
C     2.3109656   -3.1362440   -0.1931862 
C    -0.3059771   -2.7058169   -2.5139151 
C     0.8375195   -3.3645833   -1.9738778 
C    -2.5356283   -2.6909072   -1.4862219 
C    -2.7405019   -3.0083845   -0.0587230 
C    -1.4440889   -3.3998298   -1.9472438 
C    -0.9009004   -3.4951017    1.4901771 
C     0.5439639   -3.5917097    1.4599459 
C     1.2056337   -3.9566318    0.2611608 
C     0.4064393   -4.2708414   -0.8915740 
C    -1.6771956   -3.8796068    0.3569164 
C    -0.9760479   -4.2781958   -0.8476255 
