60 

C     2.3130330   -3.8180704    0.0000000 
C     1.4393732   -3.8487909    1.1687758 
C     0.1360748   -4.2265658    0.7534923 
C     1.4393732   -3.8487909   -1.1687758 
C     0.1360748   -4.2265658   -0.7534923 
C     1.6362940   -2.6351492   -1.9120059 
C     3.0293270   -2.6362816    0.0000000 
C     2.7072989   -1.9183339   -1.2377749 
C     1.6362940   -2.6351492    1.9120059 
C     2.7072989   -1.9183339    1.2377749 
C     0.5129129   -1.8811138    2.4041574 
C    -0.9570253   -3.6612092    1.4284438 
C    -0.7692937   -2.4801485    2.2493628 
C    -2.1882422   -3.4618154    0.7026532 
C    -0.9570253   -3.6612092   -1.4284438 
C    -2.1882422   -3.4618154   -0.7026532 
C     0.5129129   -1.8811138   -2.4041574 
C    -0.7692937   -2.4801485   -2.2493628 
C     0.6068288   -0.4215386   -2.5059723 
C     2.7635394   -0.5424602   -1.2494410 
C     1.8365614    0.2039438   -2.1119378 
C     2.7635394   -0.5424602    1.2494410 
C     3.1894098    0.1239684    0.0000000 
C     0.6068288   -0.4215386    2.5059723 
C     1.8365614    0.2039438    2.1119378 
C    -0.6068288    0.4215386    2.5059723 
C    -1.9293270   -1.6206806    2.0594223 
C    -2.8272379   -2.2431276    1.1592380 
C    -1.8365614   -0.2039438    2.1119378 
C    -2.8272379   -2.2431276   -1.1592380 
C    -1.9293270   -1.6206806   -2.0594223 
C    -3.2707217   -1.4976630    0.0000000 
C    -0.6068288    0.4215386   -2.5059723 
C    -1.8365614   -0.2039438   -2.1119378 
C    -0.5129129    1.8811138   -2.4041574 
C     1.9293270    1.6206806   -2.0594223 
C     0.7692937    2.4801485   -2.2493628 
C     3.2707217    1.4976630    0.0000000 
C     2.8272379    2.2431276   -1.1592380 
C     1.9293270    1.6206806    2.0594223 
C     2.8272379    2.2431276    1.1592380 
C    -0.5129129    1.8811138    2.4041574 
C     0.7692937    2.4801485    2.2493628 
C    -1.6362940    2.6351492    1.9120059 
C    -2.7635394    0.5424602    1.2494410 
C    -3.1894098   -0.1239684    0.0000000 
C    -2.7635394    0.5424602   -1.2494410 
C    -2.7072989    1.9183339    1.2377749 
C    -1.6362940    2.6351492   -1.9120059 
C    -2.7072989    1.9183339   -1.2377749 
C    -3.0293270    2.6362816    0.0000000 
C    -1.4393732    3.8487909    1.1687758 
C    -1.4393732    3.8487909   -1.1687758 
C    -2.3130330    3.8180704    0.0000000 
C     0.9570253    3.6612092   -1.4284438 
C     2.1882422    3.4618154   -0.7026532 
C     2.1882422    3.4618154    0.7026532 
C     0.9570253    3.6612092    1.4284438 
C    -0.1360748    4.2265658   -0.7534923 
C    -0.1360748    4.2265658    0.7534923 
