60 

C     0.3593112    4.3858828   -0.1036214 
C     1.4132607    3.9058534    0.6562386 
C     0.8716187    3.3229192    1.8879939 
C    -0.8856542    4.1464671    0.6748084 
C    -0.5660796    3.3475513    1.8328137 
C    -1.8382190    3.6911310   -0.2156552 
C     0.1508522    3.8976663   -1.4555165 
C    -1.2311901    3.5632657   -1.5662398 
C     1.0816034    2.9765233   -1.9943631 
C     2.3668775    2.9633414    0.1248113 
C     2.2411086    2.5607836   -1.2134724 
C     1.5860489    2.1445339    2.1741413 
C     2.5806872    1.9327502    1.1366379 
C     0.9148525    1.0386517    2.7697449 
C    -1.2869765    2.1389373    2.1227952 
C    -0.5547058    1.0538890    2.8030565 
C    -2.6082029    2.5282142    0.0561417 
C    -2.4145823    1.7659060    1.2579705 
C    -1.6732145    2.3463712   -2.1132969 
C    -2.6863093    1.8138917   -1.2028353 
C     0.6200960    1.7884589   -2.6857029 
C    -0.7497278    1.4091858   -2.7210602 
C     2.5712154    1.1969382   -1.5668792 
C     1.6237403    0.7479449   -2.5417688 
C     2.9964346    0.6238106    0.8055962 
C     3.0957855    0.2697942   -0.6145707 
C     1.6073478   -0.1960675    2.6974517 
C     2.6554075   -0.4037880    1.7358206 
C     0.9331655   -1.4568212    2.8821588 
C    -1.1923084   -0.1891489    2.9726219 
C    -0.4404911   -1.4391840    3.1162644 
C    -2.8915080    0.3881148    1.2468992 
C    -2.4176104   -0.5075741    2.2534351 
C    -2.9739118    0.4783057   -1.2218870 
C    -3.2770662   -0.2190499    0.0045598 
C    -1.0870032   -0.0241325   -2.7581052 
C    -2.2981564   -0.4267552   -2.1316369 
C     1.3491114   -0.6244524   -2.7403347 
C    -0.0422033   -1.0435822   -2.9174666 
C     3.0461303   -1.0898510   -0.9766156 
C     2.2943543   -1.5278216   -2.1361003 
C     2.6272629   -1.7997718    1.3531012 
C     1.5410174   -2.4690531    2.0411505 
C     2.9485169   -2.1513016    0.0334839 
C     0.7405282   -3.4700402    1.3798407 
C    -1.2154117   -2.4938255    2.5579002 
C    -2.4418289   -1.9097066    2.0409214 
C    -0.6855831   -3.4287026    1.6337165 
C    -3.0841431   -1.6219604   -0.2595906 
C    -2.4820414   -1.7431030   -1.5872343 
C    -2.6899920   -2.4892224    0.7677562 
C    -1.6460008   -3.4854461    0.5227151 
C    -0.3648129   -2.4069871   -2.6095400 
C    -1.5553651   -2.7348187   -1.8483818 
C    -1.1765114   -3.6827166   -0.7829544 
C     1.9434964   -2.8868995   -1.9287268 
C     2.2955689   -3.2637478   -0.5485740 
C     1.1654566   -3.8884168    0.0669290 
C     0.6547011   -3.3275124   -2.1837746 
C     0.1812531   -4.0256224   -0.9835710 
