60 

C     1.6971577    4.3988196    0.0679258 
C     2.8127711    3.6181176    0.1672438 
C     2.9217633    2.7430337   -1.0132121 
C     1.0021104    4.0237378   -1.1802599 
C     1.7109563    2.8999061   -1.7914165 
C    -0.3230718    3.7924637   -0.8484765 
C     0.8102466    4.0618798    1.1933000 
C    -0.4430083    3.8245937    0.6533778 
C     2.7118047    2.7603864    1.3625407 
C     1.4006585    2.9524193    1.9532879 
C     3.2040972    1.4686706   -0.5234044 
C     3.0742629    1.4783121    0.9648607 
C     2.7424934    0.3157332   -1.1922596 
C     0.9808234    1.7240101   -2.2204862 
C     1.6266185    0.4246287   -2.0892326 
C    -1.1121158    2.8376236   -1.5526069 
C    -0.4681730    1.7284777   -2.2408046 
C    -2.3778206    2.6559328   -0.9711922 
C    -1.3456201    2.9098284    1.2619008 
C    -2.5038374    2.7104712    0.4817576 
C     0.6071241    1.8013319    2.2901201 
C    -0.8407524    1.8443707    2.1066568 
C     2.4866816    0.3361033    1.5589199 
C     1.2440697    0.4747145    2.2693951 
C     3.0158000   -0.9226518   -0.5064259 
C     2.8516026   -0.9147178    0.9454745 
C     2.7270238   -2.0930201   -1.2168864 
C     0.9044269   -0.8039666   -2.3681616 
C     1.6071425   -2.0222346   -2.1467675 
C    -1.2277909    0.4650336   -2.3518660 
C    -0.5444921   -0.8082991   -2.3915781 
C    -3.2476048    1.6092129   -1.4085154 
C    -2.6181412    0.4577768   -1.9899537 
C    -3.4434489    1.7060653    0.8345928 
C    -4.1171169    1.1962001   -0.3380999 
C    -1.6508045    0.6299390    2.2228596 
C    -2.9813966    0.6305339    1.6715290 
C     0.4583876   -0.7303869    2.4753493 
C    -0.9970705   -0.6594752    2.4381510 
C     2.3543304   -2.0813929    1.5446238 
C     1.1019108   -1.9902276    2.2681515 
C     2.6399945   -3.3623945   -0.5335994 
C     2.3915182   -3.3307357    0.8404856 
C     0.8946335   -3.2699976   -2.0313618 
C     1.5585551   -4.1413131   -1.1394693 
C    -1.2462123   -2.0506532   -1.9591044 
C    -0.5185306   -3.2352266   -1.7496899 
C    -3.2096691   -0.7069750   -1.3408390 
C    -4.0163963   -0.2114704   -0.2549129 
C    -3.5221423   -0.5752887    1.0619052 
C    -2.4869277   -1.9085528   -1.2036520 
C    -1.6915438   -1.8633141    2.0609688 
C    -2.8566968   -1.7651867    1.1994410 
C    -2.5761946   -2.5952098    0.0518000 
C     0.3591540   -3.2145734    1.9648346 
C     1.1301630   -4.0603701    1.1220513 
C     0.6092056   -4.5151957   -0.1204087 
C    -0.6980311   -4.0451876   -0.5278185 
C    -1.0192620   -3.0803419    1.7284987 
C    -1.5536155   -3.5219685    0.4404582 
