60 

C    -0.1491999   -4.2896686    0.9464702 
C     1.1663255   -3.8843367    1.1541790 
C     1.8032278   -3.7289413   -0.1632408 
C    -0.4213583   -4.1424307   -0.5170685 
C     0.7500920   -3.6661515   -1.1524432 
C    -1.6579441   -3.4861426   -0.6842787 
C    -1.1811103   -3.6415301    1.6174847 
C    -2.2211918   -3.3300554    0.6392055 
C    -0.9300838   -2.4208540    2.3407760 
C     1.4789854   -2.7046276    1.8994720 
C     0.4128160   -1.8906423    2.4340868 
C     2.7557341   -2.7236720   -0.0840499 
C     2.5968166   -2.0574214    1.2163284 
C     2.9517556   -1.9231463   -1.2338871 
C     0.6748490   -2.5052505   -2.0473241 
C     1.8468812   -1.7495557   -2.1911915 
C    -1.7995261   -2.3969401   -1.6331390 
C    -0.6172416   -1.8283965   -2.2722500 
C    -2.9100418   -1.5407215   -1.3821760 
C    -2.8363016   -2.1234693    1.0137724 
C    -2.0207162   -1.5114524    2.0703774 
C    -3.3833389   -1.3368942    0.0141322 
C    -1.8895175   -0.1173070    2.1374087 
C     0.5807238   -0.4437510    2.4956344 
C    -0.5807238    0.4437510    2.4956344 
C     2.8445568   -0.6907448    1.3527610 
C     1.8895175    0.1173070    2.1374087 
C     3.5337215   -0.6840928   -1.0348792 
C     3.5556971   -0.0524351    0.2485880 
C     1.8306303   -0.3266051   -2.5563707 
C     2.9669871    0.2847547   -1.9800450 
C    -0.6148678   -0.4005480   -2.6483331 
C     0.6148678    0.4005480   -2.6483331 
C    -2.9669871   -0.2847547   -1.9800450 
C    -1.8306303    0.3266051   -2.5563707 
C    -3.5556971    0.0524351    0.2485880 
C    -2.8445568    0.6907448    1.3527610 
C    -3.5337215    0.6840928   -1.0348792 
C    -2.5968166    2.0574214    1.2163284 
C    -0.4128160    1.8906423    2.4340868 
C    -1.4789854    2.7046276    1.8994720 
C     2.0207162    1.5114524    2.0703774 
C     0.9300838    2.4208540    2.3407760 
C     3.3833389    1.3368942    0.0141322 
C     2.9100418    1.5407215   -1.3821760 
C     2.8363016    2.1234693    1.0137724 
C     0.6172416    1.8283965   -2.2722500 
C     1.7995261    2.3969401   -1.6331390 
C    -1.8468812    1.7495557   -2.1911915 
C    -2.9517556    1.9231463   -1.2338871 
C    -2.7557341    2.7236720   -0.0840499 
C    -0.6748490    2.5052505   -2.0473241 
C    -1.1663255    3.8843367    1.1541790 
C    -1.8032278    3.7289413   -0.1632408 
C    -0.7500920    3.6661515   -1.1524432 
C     1.1811103    3.6415301    1.6174847 
C     2.2211918    3.3300554    0.6392055 
C     1.6579441    3.4861426   -0.6842787 
C     0.1491999    4.2896686    0.9464702 
C     0.4213583    4.1424307   -0.5170685 
