60 

C     0.0506862   -4.1016482    0.8600350 
C     1.2026958   -3.9187228    0.1267838 
C     0.8573511   -3.7252034   -1.3023214 
C    -1.0629931   -4.0818080   -0.1048219 
C    -0.5591213   -3.6308532   -1.3986771 
C    -2.0986139   -3.3986958    0.4754974 
C    -0.2849737   -3.1851367    1.9549238 
C    -1.6801576   -2.9161522    1.8179401 
C     0.5781824   -2.1125069    2.2994884 
C     2.1539715   -2.9321110    0.4923916 
C     1.9109781   -2.1079006    1.6550037 
C     1.7152333   -2.7257056   -1.7946681 
C     2.6261880   -2.2956232   -0.7234765 
C     1.1751794   -1.7301315   -2.6113528 
C    -1.1554347   -2.4682751   -2.0345393 
C    -0.2583237   -1.6085211   -2.7322668 
C    -2.7899270   -2.3319026   -0.1793437 
C    -2.3479970   -1.8179331   -1.4400214 
C    -2.2230895   -1.6568896    2.0179996 
C    -3.1250293   -1.4019857    0.8779125 
C    -0.0048714   -0.8049626    2.6902208 
C    -1.4315433   -0.5700087    2.5214955 
C     0.8675688    0.3569472    2.8058437 
C     2.6969661   -0.9596401    1.7220489 
C     2.2641856    0.2310752    2.4685477 
C     3.1990941   -1.0129800   -0.7044113 
C     3.4979239   -0.5139534    0.6091670 
C     1.7503986   -0.4056563   -2.6163474 
C     2.8179149   -0.0332691   -1.7527511 
C    -0.5452564   -0.2031729   -2.9545717 
C     0.6965239    0.5248204   -2.9233724 
C    -2.6791756   -0.4182931   -1.7465288 
C    -1.7595889    0.4007395   -2.5577392 
C    -3.5070304   -0.1421300    0.5735071 
C    -3.4855339    0.2985738   -0.8044834 
C    -1.9588116    0.7803315    2.3120000 
C    -3.1024692    0.9743790    1.4368897 
C     0.3189005    1.6751552    2.6956715 
C    -1.0788366    1.8851398    2.4218634 
C     1.0586895    2.7619848    2.0741847 
C     3.0112487    1.3275977    2.0098335 
C     3.7319005    0.8698262    0.8125986 
C     2.3805395    2.5750860    1.6813591 
C     2.9506319    1.3690529   -1.4608016 
C     3.5260149    1.7929047   -0.2063101 
C     2.7580515    2.9143901    0.3203471 
C     0.7518990    1.8849008   -2.4830389 
C     1.9043880    2.2961522   -1.7629979 
C     1.7607972    3.2239659   -0.6143434 
C    -1.7272773    1.8414640   -2.4022951 
C    -0.4822248    2.5381522   -2.2533504 
C    -3.4735585    1.7236722   -0.7276786 
C    -3.2513777    2.1414128    0.6769096 
C    -2.6676101    2.4986926   -1.5399933 
C    -1.2094819    3.0718231    1.5851911 
C     0.1277557    3.4585433    1.2024783 
C     0.4517282    3.6395184   -0.1875068 
C    -0.6216782    3.4986583   -1.1358465 
C    -2.2651062    3.1803522    0.6698178 
C    -1.9564938    3.4764608   -0.7120940 
