60 

C     0.8567912    4.4488724   -0.8703438 
C    -0.1886941    4.5517355    0.1282468 
C     0.3664629    4.1251211    1.3603836 
C     2.0226999    3.8213629   -0.2667809 
C     1.7480808    3.6574608    1.0999318 
C     2.3350786    2.6355559   -1.0238251 
C     0.3958991    3.5944874   -1.8953431 
C     1.3306067    2.5072156   -2.0729069 
C    -1.3583912    3.8625269   -0.3766443 
C    -1.0007465    3.2660749   -1.6708500 
C    -2.1080690    3.0719591    0.5016471 
C    -0.2678228    3.1233380    2.1474660 
C    -1.5629608    2.7108703    1.8076687 
C     1.9122329    2.3885701    1.7299114 
C     0.7136525    2.0651144    2.4782255 
C     2.7444257    1.4488848   -0.3872495 
C     2.5599742    1.3193886    1.0547079 
C     2.6849584    0.2331467   -1.1764826 
C     0.8761068    1.2392511   -2.5033005 
C     1.7171343    0.0878226   -2.2305412 
C    -1.4912767    2.0106386   -2.0662643 
C    -0.5594186    1.0650853   -2.7166351 
C    -2.8074553    1.9179931    0.0169587 
C    -2.6018465    1.4272093   -1.2936488 
C    -1.9847942    1.3720219    2.1112132 
C    -2.8938547    0.9365508    1.0954889 
C     0.3386246    0.7362766    2.7422618 
C    -1.0892847    0.4142554    2.7126066 
C     2.4211625    0.0009875    1.6296351 
C     1.3076096   -0.3327101    2.4844165 
C     3.1890782   -0.9187367   -0.5315543 
C     3.0921660   -1.0349997    0.9254414 
C     2.9915362   -2.2226551   -1.0601083 
C     1.2242532   -1.2614810   -2.5183683 
C     1.8515942   -2.4106058   -1.9322396 
C    -1.0170628   -0.2367467   -2.9591782 
C    -0.1394137   -1.3949123   -2.8493459 
C    -2.9826155    0.0697003   -1.5452622 
C    -2.3236710   -0.6539518   -2.5525067 
C    -3.1565263   -0.4395245    0.8662567 
C    -3.3391062   -0.8703598   -0.4758352 
C    -1.4746200   -0.9310442    2.6518390 
C    -2.5738936   -1.3599273    1.8075344 
C     0.8963176   -1.7293033    2.5617395 
C    -0.5040726   -2.0122719    2.6901520 
C     2.8881295   -2.4069313    1.2290920 
C     2.9890935   -3.1847542   -0.0018710 
C     1.6888176   -2.7489886    1.9209499 
C     1.0771523   -3.4881874   -1.3671420 
C     1.7684611   -3.8796788   -0.1253166 
C     1.0295243   -3.7936224    1.1002330 
C    -0.9228131   -2.5096201   -2.3252391 
C    -2.2435850   -2.0348487   -2.1408444 
C    -2.8987747   -2.1921291   -0.8821131 
C    -0.3419886   -3.4711487   -1.4158052 
C    -2.3167229   -2.7053085    1.4410112 
C    -1.0954788   -3.1460880    2.0450566 
C    -0.3582561   -3.8654903    1.0602788 
C    -2.3267320   -3.0913656    0.0537106 
C    -1.0876765   -3.7820859   -0.2205186 
