60 

C    -0.3876073    4.4545317    0.8184437 
C     0.9783933    4.1794717    0.8414106 
C     1.2572893    3.2227809    1.9423824 
C    -1.0147108    3.4978149    1.7612201 
C    -0.0053193    2.7357966    2.4255521 
C    -2.0929805    2.8622778    1.0670466 
C    -1.1065801    4.3910952   -0.4090331 
C    -2.2152986    3.4538048   -0.2283490 
C    -0.4259735    4.0178898   -1.5936934 
C     1.6653920    3.6944433   -0.3334921 
C     0.9488514    3.5863753   -1.5545548 
C     2.1820819    2.2893821    1.5018635 
C     2.4801212    2.5807271    0.0823125 
C     2.1320854    0.9307031    1.9876872 
C    -0.2018382    1.3458164    2.6684301 
C     0.9343255    0.4381724    2.6610559 
C    -2.3076601    1.4630965    1.2631508 
C    -1.4998196    0.7972287    2.2923506 
C    -2.7907439    0.6572991    0.1640879 
C    -2.2558259    2.5737707   -1.3502153 
C    -1.1960607    2.9658631   -2.2475133 
C    -2.5421642    1.1976624   -1.1735425 
C     1.0434030    2.3314121   -2.3065297 
C    -0.3125712    1.9719959   -2.7157413 
C     2.7504592    1.4890205   -0.7587326 
C     1.9473970    1.3047485   -1.9812325 
C     2.9279253    0.0203159    1.2837830 
C     3.2691902    0.3274441   -0.1108961 
C     2.7517056   -1.4054617    1.4117693 
C     0.7224363   -0.9978450    2.7726927 
C     1.6660596   -1.9541479    2.1638637 
C    -1.6862170   -0.5613829    2.4787377 
C    -0.6285261   -1.4309757    2.9450624 
C    -2.9497299   -0.7706830    0.3488565 
C    -2.5983481   -1.3328022    1.6298518 
C    -2.8782454   -1.6405029   -0.7678934 
C    -1.9829402    0.2683232   -2.1413005 
C    -0.7174027    0.6184518   -2.7765798 
C    -2.3087021   -1.0917482   -2.0036787 
C     1.6577355   -0.0651687   -2.4447066 
C     0.3127845   -0.3972717   -2.8928451 
C     3.2925480   -0.8862238   -0.7926080 
C     3.0993164   -1.9734980    0.1561832 
C     2.4500655   -1.1273789   -1.9259174 
C     2.3318671   -2.9912024   -0.4446819 
C     1.9280240   -2.4859198   -1.7750594 
C     1.1791255   -3.2404702    1.7152410 
C     1.4344145   -3.6967163    0.3565777 
C    -1.0335251   -2.7534391    2.6167842 
C    -2.2517620   -2.6782960    1.7630867 
C    -0.1627537   -3.6400777    2.0138546 
C    -2.4318342   -3.0187746   -0.6406268 
C     0.1645492   -4.1709028   -0.2220704 
C    -2.0903111   -3.5436506    0.6321974 
C    -0.8077041   -4.1867423    0.7989700 
C    -1.4676153   -2.0700386   -2.5668185 
C    -0.1152734   -1.7569205   -2.8693632 
C     0.6877566   -2.8165551   -2.2772554 
C    -1.5236289   -3.2600706   -1.7319868 
C    -0.2056297   -3.7228486   -1.5275885 
