60 

C     1.1623249   -4.4069643    0.2210433 
C     1.6530907   -3.6831568    1.2982669 
C     2.6607236   -2.7220034    0.8302422 
C     1.7990501   -3.8179079   -0.9883827 
C     2.6468934   -2.7179988   -0.5921606 
C     0.7811396   -3.5676215   -1.8832803 
C    -0.2679780   -4.5009663    0.0095649 
C    -0.4976373   -4.0657433   -1.3511837 
C    -1.1340966   -4.0039754    1.0193433 
C     0.7747263   -2.9695688    2.2078236 
C    -0.5933648   -3.1671382    2.1040115 
C     2.4744465   -1.5143088    1.5393500 
C     1.2921844   -1.6130546    2.3642234 
C     2.8090807   -0.2902647    0.9352990 
C     2.5540507   -1.4464368   -1.2527447 
C     2.9846015   -0.2969299   -0.5036052 
C     0.5678116   -2.2560236   -2.4533287 
C     1.4861554   -1.1960674   -2.2224968 
C    -1.4835424   -3.1160002   -1.6804023 
C    -0.8329962   -1.9788356   -2.3998166 
C    -2.3234657   -3.3348154    0.5943145 
C    -2.4825742   -2.8327016   -0.7273418 
C    -1.4738785   -1.9993136    2.3003792 
C    -2.5964491   -2.2133594    1.4796930 
C     0.4682532   -0.4609528    2.5331939 
C    -0.9724180   -0.6515623    2.4880084 
C     2.3147977    0.9090896    1.5616663 
C     1.0475093    0.8515215    2.2685504 
C     2.7428284    2.1350176    0.9659220 
C     2.9169253    0.9495299   -1.1639204 
C     3.0945596    2.1349252   -0.4268084 
C     0.9991535    0.1660131   -2.4445079 
C     1.8848334    1.2188289   -2.1258262 
C    -1.3271718   -0.6516888   -2.3282609 
C    -0.4153303    0.4727186   -2.4949094 
C    -2.9918615   -1.4699887   -0.6515239 
C    -3.1274019   -1.1287304    0.7450717 
C    -2.5527952   -0.4565131   -1.5510398 
C    -1.7930457    0.4779164    2.0872453 
C    -2.8969674    0.1894395    1.1805671 
C     0.1892007    2.0366692    2.2790642 
C    -1.2483445    1.8390916    2.1224240 
C     2.0295996    3.3232025    1.2171584 
C     0.7757409    3.3073118    1.8620664 
C     2.4183556    3.2411311   -1.0872777 
C     1.4959579    2.6219739   -2.0007817 
C     1.9131058    4.0847749   -0.0735317 
C    -0.8598683    1.8707252   -2.2484791 
C     0.1066933    2.9828210   -2.0234000 
C    -2.8683207    0.8543232   -1.1839082 
C    -3.1963994    1.1544789    0.1869798 
C    -2.1710978    2.0213824   -1.7207967 
C    -2.0094177    2.8877971    1.4484867 
C    -2.8940241    2.4944965    0.4221492 
C    -2.4672117    3.1192876   -0.8456299 
C    -0.0258487    4.2926307    1.1489637 
C     0.6407034    4.5868883   -0.1560995 
C    -0.2765864    4.1307751   -1.1949890 
C    -1.3471534    4.0673620    0.9198306 
C    -1.5572498    4.1084687   -0.5644690 
