60 

C     3.4247971   -1.4961617   -0.6895093 
C     3.4247971   -1.4961617    0.6895093 
C     3.5279436   -0.1004524    1.1559105 
C     3.5279436   -0.1004524   -1.1559105 
C     3.4594818    0.7606760    0.0000000 
C     2.6061144    0.0420733   -2.1849783 
C     2.4287256   -2.1963773   -1.4313922 
C     1.9835752   -1.2779071   -2.4426873 
C     1.4970515   -3.0689933   -0.7491530 
C     2.4287256   -2.1963773    1.4313922 
C     1.4970515   -3.0689933    0.7491530 
C     2.6061144    0.0420733    2.1849783 
C     1.9835752   -1.2779071    2.4426873 
C     1.8601900    1.2624267    2.3144448 
C     2.6544534    1.9253290    0.0000000 
C     2.0067543    2.3017109    1.2678234 
C     1.8601900    1.2624267   -2.3144448 
C     2.0067543    2.3017109   -1.2678234 
C     0.6403313    1.1640263   -3.0144255 
C     0.6885498   -1.3679144   -2.9896262 
C     0.0364600   -0.1367494   -3.3129284 
C     0.2797159   -3.3164447   -1.4221397 
C    -0.1136605   -2.4905565   -2.5820539 
C    -0.9321115   -3.6701941   -0.7041233 
C     0.2797159   -3.3164447    1.4221397 
C    -0.9321115   -3.6701941    0.7041233 
C     0.6885498   -1.3679144    2.9896262 
C    -0.1136605   -2.4905565    2.5820539 
C     0.6403313    1.1640263    3.0144255 
C     0.0364600   -0.1367494    3.3129284 
C    -0.4224585    2.1058168    2.7701883 
C     1.0572116    3.3452567    1.2481085 
C    -0.1899929    3.2320887    2.0008733 
C     1.0572116    3.3452567   -1.2481085 
C     0.7085960    3.9826452    0.0000000 
C    -0.4224585    2.1058168   -2.7701883 
C    -0.1899929    3.2320887   -2.0008733 
C    -1.3657377    0.0062801   -3.0818940 
C    -1.6385550    1.3422984   -2.6040740 
C    -1.5189092   -2.3593410   -2.5521337 
C    -2.0277117   -3.0514971   -1.3827437 
C    -2.1225243   -1.0708337   -2.6151092 
C    -2.9057917   -2.1625447   -0.7037239 
C    -2.9448825   -0.8935927   -1.4215623 
C    -2.0277117   -3.0514971    1.3827437 
C    -1.5189092   -2.3593410    2.5521337 
C    -2.9057917   -2.1625447    0.7037239 
C    -1.3657377    0.0062801    3.0818940 
C    -1.6385550    1.3422984    2.6040740 
C    -2.1225243   -1.0708337    2.6151092 
C    -2.9448825   -0.8935927    1.4215623 
C    -2.4519064    1.5440712   -1.4491680 
C    -2.9646826    0.3487645   -0.7386019 
C    -2.4519064    1.5440712    1.4491680 
C    -2.9646826    0.3487645    0.7386019 
C    -1.2607273    3.7089989    1.1599261 
C    -0.6791071    4.3156425    0.0000000 
C    -1.2607273    3.7089989   -1.1599261 
C    -2.2494805    2.7636012    0.7343137 
C    -2.2494805    2.7636012   -0.7343137 
