60 

C     1.2243907   -3.7247444   -1.4990453 
C    -0.1481146   -3.8197168   -1.5285560 
C    -0.6356061   -4.1012110   -0.1488923 
C     1.6378815   -3.9243129   -0.0809556 
C     0.4593417   -3.9467248    0.7501491 
C     2.6717128   -3.0536663    0.1791990 
C     1.8620278   -2.5307920   -1.9710908 
C     2.9352323   -2.2857831   -1.0284661 
C     1.0783576   -1.4153428   -2.4427527 
C    -0.9676552   -2.8068748   -2.0868519 
C    -0.3768210   -1.5565510   -2.5341163 
C    -1.8623648   -3.4517752    0.0172922 
C    -2.1607940   -2.7649195   -1.2547204 
C    -2.0882667   -2.7514839    1.2205455 
C     0.3393379   -2.9979691    1.8476466 
C    -0.9712926   -2.5079094    2.1111435 
C     2.6407026   -2.1243882    1.2908495 
C     1.4817369   -2.0798061    2.1434940 
C     3.2635811   -0.9968184   -0.6512283 
C     3.2184151   -0.8999199    0.8252279 
C     1.6388056   -0.0669717   -2.2879922 
C     2.8155852    0.0951707   -1.4303375 
C     0.8156367    1.1048645   -2.5198526 
C    -1.2232148   -0.3641921   -2.5314133 
C    -0.6342016    0.9773978   -2.5371136 
C    -2.9548672   -1.6604129   -1.2529208 
C    -2.5759538   -0.5020217   -2.0583983 
C    -2.9397534   -1.5865153    1.2207988 
C    -3.5167968   -1.1573376    0.0075073 
C    -1.2072618   -1.1894979    2.6972550 
C    -2.4158532   -0.6020238    2.1541418 
C     1.2031125   -0.8204846    2.7553196 
C    -0.1414294   -0.3885473    3.0474936 
C     2.9282235    0.3470549    1.4253152 
C     1.9459500    0.3765699    2.4546424 
C     3.0935043    1.3563671   -0.8482031 
C     3.0582034    1.5075880    0.6171139 
C     1.3891797    2.4160980   -2.2186464 
C     2.5598359    2.5046764   -1.4048594 
C     0.5695393    3.5411475   -1.8742453 
C    -1.4346060    2.1210456   -2.0570517 
C    -0.7927252    3.3559172   -1.6494034 
C    -3.2464054    0.6019332   -1.4864570 
C    -3.7188219    0.2184494   -0.1635208 
C    -2.6645615    1.8695245   -1.4025824 
C    -2.5141841    0.8007025    1.9279215 
C    -3.2827813    1.2081259    0.7710140 
C    -2.8468538    2.3299734    0.0025857 
C    -0.2286241    1.0513402    2.8977735 
C     1.0840337    1.5371719    2.5987126 
C    -1.3988041    1.6748401    2.3585119 
C     2.4097779    2.7527881    0.9314853 
C     2.2769063    3.4576387   -0.3104464 
C     1.1319590    4.1588604   -0.6342462 
C     1.3002956    2.7552261    1.8773183 
C    -1.1425587    3.9724235   -0.3628266 
C    -1.9655716    3.2598935    0.5302643 
C    -1.1934130    2.9315758    1.7292158 
C     0.0879101    4.2691147    0.3123429 
C     0.1289810    3.5252350    1.5549119 
