60 

C    -1.2030616   -4.4463936    0.1429538 
C    -2.3430502   -3.6056486   -0.2022143 
C    -2.1439229   -3.1316041   -1.4948916 
C    -0.1899727   -4.2974731   -0.9126012 
C    -0.7748377   -3.5322401   -1.9321720 
C     1.0379257   -3.8175736   -0.3370923 
C    -0.6430191   -3.8991422    1.2990128 
C     0.7761167   -3.6889992    1.1071691 
C    -2.5211266   -2.5962262    0.8374237 
C    -1.4573913   -2.7714621    1.7865387 
C    -2.9256055   -1.2784641    0.5175322 
C    -2.3317560   -1.7568266   -1.8077686 
C    -2.9318718   -0.8596125   -0.8778166 
C    -0.1459753   -2.3640359   -2.4245737 
C    -1.1452868   -1.2961691   -2.4808923 
C     1.7939337   -2.7793005   -0.9534891 
C     1.1776657   -2.0123192   -2.0450620 
C     2.7682751   -2.0730927   -0.1225025 
C     1.3850806   -2.6837727    1.8198169 
C     2.5402257   -2.0321788    1.2957726 
C    -0.8351620   -1.6418779    2.4009253 
C     0.5902966   -1.6775041    2.5538661 
C    -2.6481360   -0.2361729    1.4897937 
C    -1.4723908   -0.3539197    2.3374607 
C    -3.1442761    1.0353402    1.1718207 
C    -2.8701337    0.5418605   -1.2049864 
C    -3.3684456    1.4296190   -0.2056358 
C    -0.8065147    0.0741020   -2.5284140 
C    -1.8393881    1.0190762   -2.1166552 
C     1.5921699   -0.6400946   -2.3059033 
C     0.5968011    0.4150112   -2.5706621 
C     3.4611189   -0.9799152   -0.6876503 
C     2.8792526   -0.2620637   -1.8437471 
C     4.0158487    0.0371074    0.1504657 
C     2.6482669   -0.7603626    1.9719637 
C     1.3609108   -0.4919873    2.6055507 
C     3.3927457    0.2627999    1.4362238 
C    -0.6855235    0.8581410    2.5728553 
C     0.7610801    0.8033755    2.5431038 
C    -2.6356454    2.2095404    1.8356066 
C    -1.2838022    2.1218148    2.3323126 
C    -3.1537701    2.8545661   -0.2777891 
C    -2.8056446    3.3676252    1.0372925 
C    -1.4879053    2.3993708   -2.0382937 
C    -2.1934226    3.3067308   -1.2036616 
C     0.9473001    1.8000086   -2.3032942 
C    -0.0777703    2.7300962   -1.9803712 
C     3.2660387    1.1132160   -1.7514645 
C     4.0067360    1.2809252   -0.5483905 
C     2.2373233    2.1191606   -1.7967249 
C     2.8380089    1.6283112    1.4458513 
C     1.5244262    1.9027763    1.9402659 
C     3.2890111    2.2538352    0.2390066 
C     2.3242096    2.9137737   -0.5808290 
C    -0.5458704    3.2245980    1.7509318 
C    -1.4955372    3.9712197    0.9197569 
C    -1.1749456    4.0768075   -0.4500377 
C     0.0991221    3.7118915   -0.9166270 
C     0.8004617    3.0387265    1.3594614 
C     1.1708095    3.4650054    0.0014787 
