60 

C    -0.3744486    4.5464214    0.6681386 
C     0.9907395    4.1425689    0.7872633 
C     1.5307760    3.9219713   -0.5088278 
C    -0.7578418    4.2520991   -0.7109034 
C     0.4009844    3.8950215   -1.4506512 
C    -1.8240795    3.3107987   -0.7162010 
C    -1.1244965    3.6360395    1.4694869 
C    -2.1345923    3.0048844    0.6853300 
C     1.0975821    3.0452733    1.7608377 
C    -0.2506983    2.7275706    2.1811267 
C     2.0515400    2.0194091    1.5968448 
C     2.3379230    2.7994567   -0.7411217 
C     2.8196685    2.0016257    0.3460815 
C     0.4960106    2.6674222   -2.1768878 
C     1.7912083    2.0810013   -1.8833821 
C    -1.8404249    2.2088244   -1.6478093 
C    -0.6260761    1.7871670   -2.3435342 
C    -2.7898502    1.2283312   -1.3550177 
C    -2.6514168    1.7517575    1.0566092 
C    -3.3454318    1.0963035   -0.0040266 
C    -0.6450397    1.3812202    2.4550921 
C    -1.9714946    0.9225343    2.0418814 
C     1.7882753    0.7372965    2.2575154 
C     0.4226123    0.4195757    2.6631489 
C     2.6834857   -0.3411815    1.9873602 
C     3.4202115    0.7963452   -0.0477196 
C     3.5862398   -0.2546963    0.8887813 
C     2.0599718    0.7222772   -2.1069368 
C     3.1273194    0.1751843   -1.3309873 
C    -0.4010326    0.3601831   -2.5962516 
C     0.9792082   -0.1461526   -2.5918852 
C    -2.7466939   -0.0897130   -1.9304287 
C    -1.5039167   -0.5913564   -2.4487548 
C    -3.8100168   -0.2020320    0.1398789 
C    -3.6031874   -0.9181632   -1.1319479 
C    -2.2991608   -0.4959341    2.0820315 
C    -3.3252555   -1.0303233    1.2066045 
C     0.0558366   -0.9561137    2.7734538 
C    -1.2753898   -1.4058164    2.4861701 
C     2.2704309   -1.7381925    2.0655528 
C     0.9796271   -2.0261770    2.4712221 
C     3.6098822   -1.5272847    0.1979661 
C     3.2751205   -1.2492815   -1.1728731 
C     2.8552860   -2.4740282    0.9442159 
C     1.2071453   -1.5376997   -2.5238953 
C     2.3782622   -2.0949473   -1.8390518 
C    -1.2349848   -2.0298129   -2.2606700 
C     0.1095622   -2.4779394   -2.3671711 
C    -3.2413190   -2.2118135   -0.8198761 
C    -3.1695173   -2.3415355    0.6443376 
C    -2.0883986   -2.8175284   -1.3939825 
C    -1.1723895   -2.7611089    1.9400154 
C     0.2264820   -3.1182251    1.8677154 
C    -2.0623054   -3.1633264    0.9310329 
C    -1.4845803   -3.6252684   -0.3439944 
C     2.0642723   -3.4209856    0.2475075 
C     1.9517194   -3.2861152   -1.1780325 
C     0.5862036   -3.5526893   -1.5593067 
C     0.7446753   -3.7860924    0.7486645 
C    -0.1442224   -3.9670295   -0.4097390 
