60 

C    -0.0120210   -4.2037310    0.0398392 
C    -1.1119543   -3.9411052   -0.7859853 
C    -2.1678621   -3.3882295    0.0356313 
C    -0.3396815   -3.6670487    1.3779256 
C    -1.6454864   -3.1322285    1.3681660 
C     0.7561848   -2.9136390    1.8444465 
C     1.2898187   -3.7577659   -0.3011009 
C     1.8586215   -3.1372393    0.9028751 
C     1.4847747   -3.0863721   -1.5354599 
C    -0.9648466   -3.0541659   -1.9147929 
C     0.3116914   -2.6500466   -2.2906290 
C    -2.8345831   -2.3611951   -0.6759099 
C    -2.0357186   -2.0517322   -1.8634205 
C    -3.4276700   -1.3485019    0.0508100 
C    -1.9075755   -1.8673364    1.9860863 
C    -3.0524706   -1.1645800    1.4734159 
C     0.5632495   -1.6141545    2.4394138 
C    -0.7980004   -1.0854588    2.5491106 
C     1.7232598   -0.7098816    2.4366486 
C     2.8708042   -2.2213033    0.7975823 
C     2.9102817   -1.0771796    1.6993763 
C     2.4650218   -2.0439709   -1.6236060 
C     3.3039310   -1.7666425   -0.5267562 
C     0.5383738   -1.2741785   -2.6901462 
C     1.8951250   -0.9243776   -2.3623591 
C    -1.8431861   -0.7077680   -2.2450430 
C    -0.4945135   -0.2942764   -2.6896804 
C    -3.5834936   -0.0571360   -0.5392418 
C    -2.7570611    0.2964016   -1.6716083 
C    -3.2335395    0.1900371    1.7372201 
C    -3.6876415    0.8700767    0.5503708 
C    -0.9788605    0.3634316    2.7163066 
C    -2.1974106    0.9993465    2.3257899 
C     1.5042110    0.6844378    2.6239893 
C     0.1648770    1.2191944    2.7355231 
C     2.3234316    1.6922396    2.0037946 
C     3.6611184   -0.0635579    1.0436708 
C     3.7675258   -0.4481056   -0.3658472 
C     3.3374679    1.3011326    1.1119844 
C     2.2799674    0.4302583   -2.1258708 
C     3.3286024    0.6457197   -1.1583895 
C     3.2511755    1.7938046   -0.2705103 
C    -0.0931952    1.1007657   -2.6505610 
C     1.2944735    1.4695218   -2.3660822 
C    -2.4023698    1.6558187   -1.8004537 
C    -1.1337157    2.0698641   -2.3960348 
C    -3.0985577    2.1444594    0.5119859 
C    -2.2074265    2.2926837    1.6725017 
C    -2.6781782    2.6210113   -0.7445853 
C     0.1370306    2.5605695    2.2143832 
C     1.4775533    2.8275486    1.6972321 
C    -1.0283359    3.0761535    1.5676009 
C     2.4052101    2.8281624   -0.5764317 
C     1.5451219    2.7611529   -1.7553766 
C     1.6272188    3.4991696    0.4778475 
C    -0.8213643    3.3802148   -1.9377172 
C    -1.6734234    3.6161647   -0.7818462 
C    -0.8406928    3.8795369    0.3599819 
C     0.4948629    3.6811927   -1.5590726 
C     0.4798497    4.0628378   -0.1469919 
