60 

C     1.1229662    4.5704854    0.7255672 
C     1.2879128    4.5507455   -0.6737244 
C    -0.0185844    4.3375059   -1.2921569 
C    -0.2682445    4.3901599    1.0614507 
C    -0.9968388    4.3457109   -0.2111205 
C    -0.3404505    3.2602381    1.9201398 
C     1.9322648    3.5375274    1.3386253 
C     1.0418838    2.7354143    2.1008819 
C     2.1816579    3.4844848   -1.0079677 
C     2.6285344    2.8737910    0.2641094 
C     0.0864028    3.1530204   -2.0686268 
C     1.4588000    2.6354711   -1.8967083 
C    -0.9872806    2.2042460   -2.1868789 
C    -2.0459264    3.4698394   -0.2998335 
C    -2.1724517    2.5718351   -1.4538473 
C    -1.4401851    2.3380871    1.8678646 
C    -2.4311916    2.6505891    0.8633553 
C    -1.2642132    0.9508499    2.2790102 
C     1.2344424    1.3449737    2.2250314 
C     0.1041560    0.4875797    2.5617198 
C     2.7913962    1.4985362    0.3134409 
C     2.3265204    0.7459266    1.4742811 
C     1.6857961    1.2465461   -1.9230196 
C     2.6629079    0.7629208   -0.9498767 
C    -0.7135163    0.7842096   -2.4267431 
C     0.6807165    0.3127698   -2.3907271 
C    -1.7322043   -0.2160066   -2.1748063 
C    -3.0689584    1.5608471   -1.0883741 
C    -3.2441096    1.6183097    0.3908440 
C    -2.9096141    0.2321733   -1.4542227 
C    -2.2323166   -0.0662343    1.8907903 
C    -3.2008231    0.3185322    0.8913303 
C    -3.3243021   -0.5439488   -0.2829421 
C    -1.9252599   -1.4899092    1.9861442 
C     0.3582233   -0.8893063    2.6595900 
C    -0.6598233   -1.8956866    2.4878147 
C     2.5182610   -0.6712935    1.4935396 
C     1.6218143   -1.4782775    2.2432178 
C     2.9260320   -0.5735660   -0.9340416 
C     3.1309467   -1.2892882    0.3397036 
C     0.9886386   -1.1062759   -2.3763358 
C     2.2764908   -1.4774614   -1.8436802 
C    -1.4276712   -1.6444832   -2.1184123 
C    -0.0681556   -2.1296590   -2.3619374 
C    -3.0121040   -1.8453976   -0.2144748 
C    -2.5421020   -2.4207909    1.0512978 
C    -2.2914905   -2.4731343   -1.3089201 
C    -1.9427911   -3.6348809    0.7242800 
C    -1.8472579   -3.7030562   -0.7716439 
C    -0.0174785   -3.1465404    2.1116890 
C     1.4090011   -2.8754467    1.9451422 
C    -0.6778313   -4.0509262    1.2474154 
C     2.9807690   -2.6449617    0.0867357 
C     2.5259735   -2.7806368   -1.3304799 
C     2.1354273   -3.4882222    0.8851398 
C     0.2717624   -3.4816719   -1.9583770 
C    -0.6295919   -4.2325391   -1.1229111 
C     0.0759681   -4.6159687    0.1359491 
C     1.5748402   -3.7626241   -1.4067561 
C     1.4122619   -4.3451319   -0.0365547 
