60 

C     0.4737902    4.6072837   -0.7278423 
C    -0.6384567    4.3947905    0.1813329 
C    -0.1739451    4.0111118    1.4665972 
C     1.6200088    4.1078773   -0.0403547 
C     1.2804242    3.8352602    1.3299638 
C     2.2251140    3.0288574   -0.7979727 
C     0.2476361    3.6948958   -1.8139066 
C     1.3408363    2.7539189   -1.9151437 
C    -1.6179971    3.5561218   -0.4387627 
C    -1.0351954    3.0960897   -1.7100324 
C    -2.3603811    2.6291705    0.3210118 
C    -0.6897859    2.8481872    2.0985669 
C    -1.8617304    2.1811432    1.6289216 
C     1.6384147    2.6082031    1.9124910 
C     0.4316182    2.0113213    2.4882811 
C     2.8704156    1.9498342   -0.1376192 
C     2.5992986    1.7394669    1.2869765 
C     3.0598401    0.7891119   -0.9323415 
C     1.1446733    1.4136838   -2.3818149 
C     2.1862227    0.5222319   -2.0546925 
C    -1.2806504    1.7531833   -2.1862998 
C    -0.1941201    0.8629621   -2.5739492 
C    -3.0681389    1.6816968   -0.4727313 
C    -2.4754983    1.1877742   -1.7339514 
C    -3.6971584    0.6208933    0.1355180 
C    -2.0956831    0.7949684    2.0272940 
C    -3.2137222    0.1365127    1.4185888 
C     0.3019631    0.6203283    2.6800938 
C    -0.9890904   -0.0343064    2.5272552 
C     2.6166881    0.4164764    1.7622656 
C     1.4964423   -0.1438650    2.5052437 
C     3.3895880   -0.4839476   -0.3648887 
C     3.1845532   -0.6692139    1.0070717 
C     2.0434288   -0.8949580   -2.2148000 
C     2.9420466   -1.5294539   -1.2788613 
C    -0.4020971   -0.5800153   -2.5701516 
C     0.7661084   -1.4701187   -2.5164291 
C    -2.7490248   -0.2163320   -1.8471212 
C    -3.6763550   -0.5233650   -0.7889031 
C    -1.7106966   -1.1319100   -2.1918361 
C    -3.2524192   -1.2754230    1.3582981 
C    -3.5406888   -1.6734224   -0.0466360 
C    -1.0077690   -1.4857328    2.3748635 
C    -2.1781149   -2.0711534    1.7758754 
C     1.4770324   -1.5562918    2.3326460 
C     2.5989082   -1.9144201    1.4791785 
C     0.2354875   -2.2722553    2.2792404 
C     2.6765183   -2.8085414   -0.8185286 
C     2.5152741   -3.0172660    0.6433806 
C     0.6096357   -2.8559314   -2.1786287 
C     1.6405899   -3.5508217   -1.4594858 
C    -1.7893782   -2.4878403   -1.5992754 
C    -2.6427182   -2.6830833   -0.4400322 
C    -2.0196243   -3.1556075    0.7942159 
C    -0.6659120   -3.3427016   -1.6622482 
C     0.2597526   -3.5349497    1.5785304 
C     1.4177429   -3.9239487    0.8254013 
C     1.0049651   -4.3976513   -0.4742378 
C    -0.8787868   -3.8964325    0.7344957 
C    -0.3898791   -4.2723963   -0.5841208 
