60 

C     2.9557362   -2.4184961   -1.1020028 
C     1.9155394   -2.8820571   -1.8791938 
C     1.0553065   -3.7207119   -1.0368054 
C     2.6757795   -2.8100526    0.3016427 
C     1.4506105   -3.5331796    0.3387426 
C     2.9143588   -1.6821502    1.1003469 
C     3.3354672   -1.0598746   -1.1354308 
C     3.5688167   -0.6755423    0.2510981 
C     2.6523483   -0.1388233   -2.0182226 
C     1.0710522   -1.9614695   -2.6017233 
C     1.3998276   -0.5717061   -2.6608741 
C    -0.2652366   -3.5095490   -1.4259919 
C    -0.2905445   -2.4123382   -2.4126397 
C    -1.2554140   -3.5625168   -0.4231062 
C     0.4728473   -3.1830811    1.3355866 
C    -0.8945934   -3.4006665    0.9718893 
C     1.9795684   -1.2744467    2.1157098 
C     0.7838157   -2.0914553    2.2840481 
C     1.9686359    0.1673091    2.4805064 
C     3.5398413    0.6515315    0.5949269 
C     2.7422786    1.1022193    1.7305820 
C     2.8019446    1.2347694   -1.6805543 
C     3.3978301    1.6078720   -0.4476846 
C     1.7683949    2.2160047   -1.9744500 
C     0.2981491    0.3853565   -2.8192956 
C     0.5494282    1.8266458   -2.5752288 
C    -1.3610628   -1.4998712   -2.4370031 
C    -1.0677250   -0.1048243   -2.7481945 
C    -2.4581930   -2.8459020   -0.6530513 
C    -2.5300694   -1.8268384   -1.6251376 
C    -1.9958433   -2.6626977    1.5983736 
C    -2.9852403   -2.3540228    0.6164762 
C    -0.3311166   -1.4854986    2.9637789 
C    -1.7175112   -1.7123296    2.5628687 
C     0.8101950    0.7035785    3.1191845 
C    -0.2573163   -0.1646835    3.4422762 
C     0.2212027    1.9611482    2.7130356 
C     2.2222211    2.4123341    1.3991714 
C     2.6756795    2.7407659    0.0781705 
C     1.7822783    3.2190837   -0.8934766 
C     0.8865735    2.8071169    1.8017858 
C     0.5652422    3.7918212   -0.4679901 
C     0.0808681    3.5538252    0.8922386 
C    -0.5708508    2.7355103   -2.3714990 
C    -0.5269283    3.7345931   -1.3424572 
C    -2.1208299    0.8427298   -2.4479294 
C    -1.8925500    2.2082914   -2.3701911 
C    -3.2888859   -0.7633236   -1.0003977 
C    -3.4332938   -1.0296247    0.4317187 
C    -3.1317373    0.5166310   -1.4228640 
C    -2.3868910   -0.4103880    2.5290549 
C    -1.5174144    0.5083904    3.1773877 
C    -1.2362272    1.7755298    2.6546300 
C    -3.1256872    0.0156991    1.3817231 
C    -1.3684047    3.3596285    0.8259408 
C    -1.7426009    3.5956280   -0.5304083 
C    -2.6042685    2.7222547   -1.1693933 
C    -3.2097065    1.6357633   -0.4938324 
C    -2.0086919    2.3134811    1.5700545 
C    -2.9670023    1.4026086    0.9040806 
