60 

C     0.7494199   -4.1600860   -1.0457592 
C    -0.5842682   -3.9202251   -1.3860255 
C    -1.3620094   -3.8988102   -0.1413975 
C     0.8693416   -4.1333390    0.4443310 
C    -0.4383223   -3.9283678    0.9659382 
C     1.9427100   -3.2571285    0.7688081 
C     1.7520151   -3.3580808   -1.5852584 
C     2.5904583   -2.9035347   -0.4703727 
C     1.4209556   -2.1897594   -2.3454299 
C    -0.9466934   -2.7535352   -2.1373315 
C     0.0554843   -1.8126500   -2.5928903 
C    -2.3298693   -2.8914352   -0.2291545 
C    -2.1414195   -2.2239893   -1.5211862 
C    -2.6327338   -2.0692312    0.9155929 
C    -0.6009248   -2.9664434    2.0049812 
C    -1.7257991   -2.1057882    2.0293327 
C     1.7951924   -2.2217591    1.7879757 
C     0.5576770   -2.1893143    2.4697997 
C     2.5510407   -0.9567926    1.6531401 
C     2.9975490   -1.5944208   -0.7079167 
C     2.3352929   -1.1505649   -1.9336095 
C     3.1901745   -0.6675385    0.3667488 
C     2.0836155    0.2020900   -2.1517654 
C    -0.2858318   -0.3811184   -2.6833438 
C     0.7639828    0.6345813   -2.5966724 
C    -2.5631843   -0.9095648   -1.7253045 
C    -1.6661405    0.0223458   -2.4464939 
C    -3.2674367   -0.8531495    0.6559620 
C    -3.4426238   -0.3863151   -0.7026586 
C    -3.0629713    0.3518452    1.4892733 
C    -1.3446757   -0.8386736    2.6868946 
C     0.0461391   -0.9442405    2.9874540 
C    -1.9327887    0.4092906    2.3826945 
C     2.1369515    0.1765448    2.4019735 
C     0.8277130    0.1984277    3.0002197 
C     2.4499795    1.5429627    2.0178334 
C     3.3834809    0.6571034   -0.0408440 
C     2.9144842    1.0897595   -1.3751763 
C     3.1867624    1.7780006    0.8463947 
C     2.6507206    2.4514608   -1.3379789 
C     2.8747311    2.9248320    0.0395904 
C     0.4392505    2.0563391   -2.4139713 
C     1.4034314    2.9679071   -1.8200823 
C    -1.9594995    1.4095198   -2.3407933 
C    -0.9244511    2.4038486   -2.2689480 
C    -3.6961543    0.9959106   -0.6336202 
C    -3.4366204    1.4684575    0.7457944 
C    -3.0240472    1.8553548   -1.4770332 
C    -1.3322102    3.4153926   -1.2617075 
C    -2.6308128    2.6555776    0.6877967 
C    -2.5390222    3.0077599   -0.7043464 
C    -1.1218481    1.6428326    2.4187517 
C     0.2388899    1.5046045    2.8023398 
C     1.2872949    2.3783970    2.3087477 
C    -1.4687823    2.7766314    1.5337419 
C     1.8206180    3.7597044    0.3624692 
C     0.9703594    3.9138718   -0.8228370 
C    -0.3624223    3.9472946   -0.3964252 
C     0.9549590    3.4611787    1.4819846 
C    -0.4171119    3.6060289    1.0397694 
