60 

C     2.6491738   -3.2035836   -0.2900708 
C     1.4315113   -3.8192401   -0.1921252 
C     0.9174620   -3.6453497    1.1866171 
C     2.9686223   -2.6608288    1.0550217 
C     1.7636681   -2.7157400    1.8613392 
C     3.5913773   -1.4608295    0.8559261 
C     2.8463843   -2.1504558   -1.2636257 
C     3.6370732   -1.1607020   -0.6016522 
C     1.7542587   -1.6979044   -2.0799799 
C     0.3587970   -3.5196149   -1.0845101 
C     0.4776520   -2.4501305   -2.0311835 
C    -0.4580275   -3.4933696    1.1228713 
C    -0.8500872   -3.6317128   -0.2936224 
C    -1.1108568   -2.4971903    1.9285885 
C     1.1769655   -1.5003356    2.3915784 
C    -0.2884783   -1.4134934    2.4853197 
C     3.1748017   -0.2815322    1.5274379 
C     1.9613329   -0.2537290    2.2966533 
C     3.4611995    0.2076870   -0.7675752 
C     3.4220753    0.7902137    0.5793198 
C     1.7295502   -0.2686754   -2.4424094 
C     2.5687173    0.7241884   -1.7630385 
C     0.5444750    0.2285997   -3.0565214 
C    -0.7758837   -1.7803633   -2.4104286 
C    -0.7145229   -0.4848400   -2.9592659 
C    -2.0407180   -3.0800089   -0.7150799 
C    -2.0240802   -2.1233804   -1.8056986 
C    -2.4824533   -2.2730936    1.5746331 
C    -2.9679051   -2.6467935    0.2680125 
C    -3.0811167   -1.0276142    1.8869302 
C    -0.9126826   -0.1001933    2.6864791 
C    -2.3180347    0.0335935    2.3892545 
C     1.3243672    1.0517074    2.4727640 
C    -0.1179037    1.1271746    2.7027362 
C     2.8753629    2.0071906    0.7839712 
C     1.9802333    2.2049667    1.9102481 
C     2.1246894    2.1150619   -1.5954331 
C     2.3981613    2.7952503   -0.3504286 
C     0.2481673    1.6123864   -3.0643185 
C     0.9421824    2.5491037   -2.2791483 
C    -1.7697305    0.5004943   -2.7298125 
C    -1.1827679    1.7751455   -2.8313543 
C    -3.0441862   -1.1200331   -1.5088354 
C    -3.6780984   -1.5045526   -0.2866058 
C    -3.8432239   -0.5424981    0.7128447 
C    -2.8205493    0.2658347   -1.7973917 
C    -2.8052530    1.2306797    1.6935031 
C    -3.5310822    0.8144961    0.5000429 
C    -3.0814576    1.3011538   -0.7804320 
C    -0.7860118    2.3742100    2.4005670 
C    -2.0563951    2.3529727    1.6906801 
C     1.2689681    3.3898053    1.5922216 
C     1.5004781    3.7440464    0.1824970 
C    -0.0923529    3.4827114    1.8515125 
C    -0.0695133    3.4034858   -1.6359865 
C    -1.3816422    2.7882123   -1.8657269 
C    -2.3063702    2.5455283   -0.7887810 
C    -1.9473292    3.1538302    0.4721334 
C     0.2174824    4.0134888   -0.4133405 
C    -0.7764755    3.9245696    0.6226784 
