60 

C     1.6257137   -3.8262098    0.3639114 
C     0.4382342   -4.0310953   -0.2811870 
C    -0.6799616   -3.8019912    0.6796686 
C     1.2840052   -3.4715723    1.7793309 
C    -0.1447990   -3.2777768    1.8835587 
C     2.1381254   -2.4715628    2.1466918 
C     2.5649984   -2.8533524   -0.1384917 
C     3.0413862   -2.1599979    1.0202726 
C     2.2553754   -2.0883095   -1.3269139 
C     0.1003155   -3.3598161   -1.4943403 
C     0.9887556   -2.3624749   -2.0279150 
C    -1.7462538   -3.2246147   -0.0170014 
C    -1.3214755   -3.1002817   -1.4270163 
C    -2.5077676   -2.1928860    0.6154677 
C    -0.6859927   -2.0365951    2.3917565 
C    -1.9738327   -1.6110960    1.8499244 
C     1.6495552   -1.2273612    2.6824561 
C     0.2486346   -1.0003522    2.8616221 
C     3.2354453   -0.7838400    1.0136342 
C     2.4634730   -0.1926747    2.1175744 
C     2.8425283   -0.7498374   -1.4277254 
C     3.3586304   -0.0870353   -0.2243949 
C     2.3581684    0.1309354   -2.4547805 
C     0.3531717   -1.2776870   -2.7877605 
C     1.0622553   -0.0698088   -2.9967428 
C    -1.8991293   -2.1017045   -2.1942858 
C    -1.0574099   -1.1605639   -2.8792123 
C    -3.2762135   -1.3528206   -0.2719809 
C    -3.0000130   -1.3762021   -1.6486856 
C    -3.6069878    0.0237580    0.0663940 
C    -2.4256492   -0.3093797    2.2028612 
C    -3.3501782    0.4735054    1.3465254 
C    -0.1743816    0.3929644    2.9607144 
C    -1.5858018    0.6357780    2.8715656 
C     2.0347743    1.1488321    2.0639118 
C     0.7396764    1.4850548    2.6260535 
C     3.2944640    1.3326297   -0.0932643 
C     2.6228891    1.9410352    1.0285764 
C     2.5448638    1.5586931   -2.3804603 
C     3.0189257    2.1676893   -1.2321427 
C     0.3763350    1.2523570   -3.0757701 
C     1.2997345    2.2350584   -2.7450698 
C    -1.7279162    0.1637357   -2.8194358 
C    -2.9277070    0.0044408   -2.1162101 
C    -3.2876164    0.8905609   -1.0747108 
C    -0.9925488    1.3741290   -2.6915619 
C    -2.5931382    2.1326154   -0.8948324 
C    -1.3998302    2.3958985   -1.7209771 
C    -3.1001002    1.8509729    1.5322855 
C    -2.0855194    1.9525924    2.5574495 
C    -2.6823369    2.6943668    0.4318930 
C     0.1835434    2.7594494    2.2215244 
C    -1.2209705    2.9871140    2.2343458 
C    -1.6176696    3.5122047    0.9217354 
C     1.9339204    3.1364312    0.5297142 
C     2.1365505    3.2668203   -0.8601094 
C     0.9827967    3.2098836   -1.7342819 
C    -0.3514193    3.2918513   -1.2095192 
C     0.6978390    3.4505876    1.0740570 
C    -0.4524646    3.7069548    0.1713035 
