60 

C     1.4961410   -4.0401502   -0.1385421 
C     0.4054755   -4.2026716   -0.9485844 
C    -0.8001056   -4.2721704   -0.0743318 
C     1.0202113   -3.9655919    1.2671391 
C    -0.4185898   -3.8711935    1.2568516 
C     1.8098271   -3.0164514    1.8880973 
C     2.4190032   -2.9364902   -0.3513607 
C     2.7806078   -2.4573021    0.9264990 
C     2.1689081   -1.9611213   -1.3920969 
C     0.1301426   -3.2594622   -2.0165383 
C     0.9773393   -2.0992732   -2.2122011 
C    -1.8106560   -3.6146493   -0.7321024 
C    -1.2582155   -3.0358744   -1.9862131 
C    -2.5862623   -2.6052798   -0.1091958 
C    -1.0619113   -2.7193115    1.8607002 
C    -2.2418286   -2.1265883    1.2077502 
C     1.2251452   -1.9227963    2.5816008 
C    -0.2039687   -1.7953144    2.6231846 
C     2.8997430   -1.0724093    1.1989877 
C     2.0478258   -0.7503732    2.3089586 
C     2.7319460   -0.6303337   -1.1894433 
C     3.0564854   -0.1312169    0.1447878 
C     2.3869831    0.3504851   -2.1447815 
C     0.3220413   -0.8737359   -2.7116701 
C     1.1057899    0.2796116   -2.8036566 
C    -1.8749917   -1.7787271   -2.1935179 
C    -2.8703103   -1.6223276   -1.1489900 
C    -1.1140908   -0.6561650   -2.6242278 
C    -3.3042961   -0.3738742   -0.8357139 
C    -2.6946037   -0.7692633    1.5379624 
C    -3.4157968    0.0060401    0.5617839 
C    -0.6576659   -0.4759389    2.8860782 
C    -1.9450178    0.0061969    2.4902864 
C     1.5791175    0.5678160    2.4813620 
C     0.2521372    0.6666424    2.9718260 
C     2.9188531    1.2789838    0.4776489 
C     2.1592422    1.6429841    1.6879563 
C     2.6720279    1.7097486   -1.9079170 
C     2.9641310    2.2139041   -0.6137643 
C     0.5476202    1.6379621   -2.8536471 
C     1.5987290    2.5318122   -2.4856554 
C    -1.6534408    0.6917375   -2.3802173 
C    -2.8360246    0.7762704   -1.5933568 
C    -0.7892881    1.8769646   -2.4446763 
C    -3.3690982    1.4208091    0.5673321 
C    -3.0418151    1.9032230   -0.7499568 
C    -1.8863779    1.4547691    2.4584617 
C    -0.5131686    1.8481612    2.7613909 
C    -2.5859464    2.1853766    1.4952840 
C     1.4580611    2.8914795    1.7026538 
C     0.0815130    2.9582690    2.1666367 
C     2.2989337    3.4977305   -0.5270058 
C     1.3851834    3.6381195   -1.6784193 
C     1.5635695    3.8069738    0.6023747 
C    -1.0457776    3.0727696   -1.5915781 
C    -2.1236422    2.9807554   -0.6531692 
C    -1.9407252    3.2679604    0.7703161 
C    -0.6887677    3.7416108    1.1829041 
C     0.0612267    3.9104857   -1.1869246 
C     0.2084219    4.2204046    0.2126405 
