60 

C    -2.0905170    3.5654916    0.3389964 
C    -1.7203134    3.2530441    1.6417397 
C    -2.3991814    2.0233115    2.0545249 
C    -2.9700515    2.4884507   -0.1255516 
C    -3.1372954    1.5278297    0.9389997 
C    -2.4935360    2.0522899   -1.3662574 
C    -1.0759074    3.7970435   -0.6535144 
C    -1.3255810    2.8701889   -1.7419185 
C     0.2509573    4.0114050   -0.2241308 
C    -0.3288039    3.1665021    2.0306441 
C     0.6386737    3.6490735    1.1522544 
C    -1.4273416    1.1932557    2.6551193 
C    -0.1452829    1.8822201    2.6901602 
C    -1.5192725   -0.2229602    2.5229242 
C    -3.1594698    0.1388251    0.6640795 
C    -2.5834698   -0.7530868    1.6735968 
C    -2.5948932    0.6615232   -1.7180094 
C    -3.1131820   -0.2902277   -0.7298564 
C    -1.6587838    0.1821273   -2.6626579 
C    -0.2527729    2.2683690   -2.4545096 
C    -0.4420785    0.9392429   -2.9433768 
C     1.3135561    3.5614008   -1.0545020 
C     1.0963116    2.6449881   -2.1317774 
C     1.9268672    2.9750619    1.0968365 
C     2.4074619    3.0780011   -0.2507816 
C     1.0609473    1.1515519    2.5862648 
C     2.1655420    1.7710294    1.8338581 
C    -0.3139279   -0.9868377    2.7594838 
C     0.9790102   -0.3098033    2.7505058 
C    -0.3687427   -2.3987317    2.4562211 
C    -2.5828650   -2.1406950    1.3963100 
C    -1.5214840   -2.9616521    1.8988749 
C    -2.9403797   -1.6791415   -0.9919519 
C    -2.8759581   -2.6034255    0.0786327 
C    -1.3510786   -1.2165871   -2.7870802 
C    -2.0370081   -2.1595663   -2.0342421 
C     0.6331883    0.0091264   -3.0350974 
C     0.0765722   -1.3354528   -2.9997682 
C     2.1451794    1.6435605   -2.0870432 
C     2.9699107    1.9583462   -0.9123266 
C     1.9262217    0.2974781   -2.4752411 
C     3.1547504    0.8898112    1.2821191 
C     3.4638842    0.9197816   -0.1485487 
C     2.1206346   -1.0843314    2.3594318 
C     3.1701927   -0.4596835    1.6555422 
C     0.7818627   -3.0916956    1.8663960 
C     1.9758041   -2.4342141    1.7923122 
C    -1.1240089   -3.9149371    0.8413372 
C    -1.9316674   -3.6702410   -0.2709173 
C    -1.3402475   -3.3409501   -1.5364610 
C     0.2963184   -3.9130922    0.7463366 
C     0.7744862   -2.3745103   -2.4110373 
C     0.0657889   -3.4097950   -1.6672625 
C     0.8963174   -3.7355288   -0.5221169 
C     2.6451942   -0.7959743   -1.7900406 
C     3.4634156   -0.4438803   -0.6568760 
C     3.4780052   -1.2898846    0.4734342 
C     2.7525021   -2.4849940    0.5486491 
C     2.0681050   -2.1049244   -1.7783378 
C     2.1274408   -2.9635266   -0.6243923 
