60 

C    -1.6375675   -4.1488453    0.4835572 
C    -0.5559848   -4.3817369   -0.4274067 
C     0.6835648   -4.2167944    0.2846475 
C    -1.1181682   -3.6646296    1.7274658 
C     0.3208373   -3.7281222    1.6387399 
C    -1.7626125   -2.4176697    2.0291621 
C    -2.5098142   -3.1638621   -0.0716793 
C    -2.6847701   -2.1458757    0.9075100 
C    -0.8146826   -3.6046193   -1.6223975 
C    -2.0079705   -2.7942551   -1.3790635 
C     0.2679805   -3.0137317   -2.2835128 
C     1.7684621   -3.6305957   -0.3965777 
C     1.5779154   -3.1908544   -1.7428313 
C     2.5988998   -2.6068598    0.2563672 
C     1.0448670   -2.6749876    2.1836800 
C     2.2552278   -2.1719348    1.5291583 
C    -1.0331249   -1.3200908    2.5660097 
C     0.3767457   -1.5186334    2.7502672 
C    -1.5304086    0.0449066    2.3739761 
C    -2.9247740   -0.8366581    0.5046413 
C    -2.6442188    0.2361135    1.4623065 
C    -2.0601391   -1.4380065   -1.7693745 
C    -2.8032467   -0.5304775   -0.9156824 
C     0.1835466   -1.6318897   -2.7651502 
C    -0.9535581   -0.8411944   -2.5478079 
C     2.3113510   -1.9592294   -1.9431270 
C     2.9652364   -1.5892485   -0.7321977 
C     1.5046433   -1.0199493   -2.6215054 
C     3.1214672   -0.2228692   -0.4181176 
C     2.4141797   -0.7843693    1.8727362 
C     1.2580832   -0.3970616    2.6468339 
C     2.9868797    0.1564912    0.9857160 
C    -0.6608510    1.1824396    2.6377694 
C     0.7816861    0.9465848    2.6853420 
C    -1.0843934    2.4970996    2.2455288 
C    -2.9995205    1.5376333    1.0608907 
C    -2.2991779    2.6608430    1.5591546 
C    -2.8475734    0.8239897   -1.2954376 
C    -3.2163261    1.8020124   -0.3546183 
C    -0.7915277    0.6192579   -2.6301111 
C    -1.8761490    1.4203421   -2.2174570 
C     1.6824093    0.3582928   -2.3935639 
C     2.6995034    0.7631183   -1.4225582 
C     0.5423201    1.2285805   -2.6421010 
C     2.7510660    2.1335467   -1.0793954 
C     2.7573185    1.5182090    1.3131233 
C     1.6729506    1.9298308    2.1925997 
C     2.8882093    2.5089924    0.3205730 
C    -0.1402123    3.5075888    1.7238028 
C     1.2217786    3.2524266    1.7446308 
C     2.0312020    3.6355820    0.6128879 
C    -2.0845705    3.6336877    0.4613319 
C    -2.5991805    3.0613308   -0.7080544 
C    -1.7263104    2.8160076   -1.8391523 
C    -0.7569645    4.1215154    0.5293775 
C     0.6727491    2.6104409   -2.3146908 
C     1.8424508    3.0613292   -1.6444948 
C     1.4048909    3.9959667   -0.5936621 
C    -0.4633109    3.4001665   -1.8387167 
C    -0.0013132    4.1807253   -0.6793421 
