60 

C     0.1442445    4.3466969   -0.1073081 
C     0.2601054    3.9004429   -1.4430953 
C     1.5722143    3.2971530   -1.5831288 
C     1.3196661    3.8294646    0.6353816 
C     2.1877002    3.1768977   -0.2854340 
C     0.8590036    3.1370600    1.7893498 
C    -0.9959620    4.0179933    0.6169497 
C    -0.5637488    3.3385470    1.8674358 
C    -2.0385628    3.2385889    0.0489380 
C    -0.6990945    2.9834924   -1.9937308 
C    -1.8901112    2.6512600   -1.2707295 
C     1.4506147    2.1489768   -2.3951112 
C     0.0429310    1.9018090   -2.6466661 
C     2.2940922    1.0714509   -2.1411714 
C     2.8399031    1.9590144    0.1015033 
C     3.1030839    1.0198141   -0.9430221 
C     1.4001601    1.8664288    2.1601377 
C     2.5681863    1.3891362    1.4252785 
C     0.4844212    0.8753401    2.7409721 
C    -1.4376908    2.2916067    2.1402073 
C    -2.4834876    2.3570634    1.1191815 
C    -0.9550332    1.0052100    2.5888045 
C    -3.1955433    1.2467118    0.8331679 
C    -2.5186332    1.3592423   -1.5432541 
C    -3.4369417    0.8708942   -0.5555531 
C    -0.4475913    0.5811380   -2.7541701 
C    -1.8374253    0.3467253   -2.3719567 
C     1.8800972   -0.2605786   -2.4766076 
C     0.5190085   -0.5420471   -2.7664530 
C     3.3835466   -0.3689491   -0.6852643 
C     2.6992193   -1.1734865   -1.7020551 
C     3.0077018    0.0591342    1.6766410 
C     3.4734466   -0.8368834    0.6159023 
C     0.9743375   -0.4322720    2.9597109 
C     2.2988565   -0.7559881    2.5867311 
C     0.1573297   -1.6261097    2.7746377 
C    -1.7690400   -0.1723744    2.3496807 
C    -2.9874726    0.0064387    1.5969477 
C    -1.1811525   -1.5237099    2.3540886 
C    -3.8178719   -0.4821515   -0.5170362 
C    -3.5263372   -1.0310709    0.8304766 
C    -2.2686194   -1.0133349   -2.3104302 
C    -3.3355122   -1.3957126   -1.4398152 
C     0.0728528   -1.9142961   -2.5137622 
C    -1.3119577   -2.1191996   -2.3142883 
C     2.2855100   -2.4575159   -1.4365185 
C     0.9796809   -2.8775700   -1.9213146 
C     3.0419654   -2.2046377    0.9233848 
C     2.3384134   -2.1458376    2.1557839 
C     1.0362496   -2.7029165    2.3104327 
C     2.5191855   -3.0327283   -0.1024310 
C     0.4958555   -3.8277678   -0.9760173 
C     0.5698676   -3.6054474    1.3393991 
C     1.3860918   -3.8295019    0.1801923 
C    -1.7195668   -2.5947268    1.4711688 
C    -2.8918684   -2.3001209    0.6830571 
C    -2.9141598   -2.5997333   -0.7176950 
C    -1.7685162   -3.1143044   -1.3400369 
C    -0.8159459   -3.5411352    0.9156994 
C    -0.8376967   -3.7916236   -0.5371857 
