60 

C     0.8677985    4.4724996    1.0425639 
C     0.9469019    4.4872832   -0.3983658 
C    -0.3871584    4.5426135   -0.9017255 
C    -0.5209704    4.1767220    1.3804543 
C    -1.3238712    4.3285910    0.2480064 
C    -0.5531638    2.9236997    2.1263327 
C     1.6511581    3.3965407    1.5142386 
C     0.8239117    2.4699512    2.2460834 
C     1.8020343    3.3902970   -0.8124634 
C     2.3613251    2.8150211    0.3976468 
C     1.3952377    2.4520953   -1.8393753 
C    -0.7763771    3.6542991   -1.8981552 
C     0.0909892    2.6143165   -2.4012485 
C    -2.2276780    3.2738291   -0.1115502 
C    -2.0282562    2.9977567   -1.5082330 
C    -1.5287317    1.9415391    1.8885003 
C    -2.4259847    2.1345771    0.7366949 
C    -1.2218931    0.5715864    2.3427479 
C     1.1753551    1.0944194    2.3138805 
C     0.1391665    0.1168208    2.5613559 
C     2.7644119    1.4837426    0.4584283 
C     2.3806868    0.6911617    1.6324568 
C     1.9571232    1.1136219   -1.8315700 
C     2.8962412    0.7491591   -0.7849851 
C     1.2284782    0.0034158   -2.4367649 
C    -0.7276126    1.4296250   -2.5943753 
C    -2.0291327    1.6882938   -2.0030808 
C    -0.2030745    0.1271503   -2.6096290 
C    -2.9244675    0.9358788    0.1187537 
C    -2.6420368    0.6502984   -1.2744625 
C    -2.1876975   -0.4080996    2.0874387 
C    -3.1194785   -0.1831726    0.9675672 
C    -1.9592347   -1.8243394    2.2058969 
C     0.4493001   -1.3171532    2.5042080 
C    -0.6151955   -2.3240138    2.3390809 
C     2.7102171   -0.6689514    1.6374234 
C     1.7721229   -1.6719064    2.1302544 
C     3.3890561   -0.5731532   -0.6997485 
C     3.4816622   -1.2194704    0.5791150 
C     1.7617893   -1.3169150   -2.3413092 
C     2.9656598   -1.5620799   -1.6454753 
C     0.8809408   -2.4784134   -2.2184940 
C    -1.1076916   -1.0109156   -2.3296781 
C    -2.3626831   -0.7172651   -1.6772467 
C    -0.5347503   -2.3458483   -2.2049032 
C    -3.4486297   -1.4167768    0.4368617 
C    -2.8881563   -2.4594149    1.3088206 
C    -3.0319245   -1.7408935   -0.9165633 
C    -1.2751251   -3.3728650   -1.4868575 
C    -2.4983634   -3.5371331    0.5240785 
C    -2.5231998   -3.0545677   -0.8923914 
C    -0.3065609   -3.5690974    1.6680044 
C    -1.2540660   -4.1288921    0.7440175 
C    -0.5697841   -4.2141219   -0.5458535 
C     2.0493322   -2.9042937    1.4024823 
C     3.0563841   -2.5914413    0.4031497 
C     2.8166236   -2.8364417   -0.9619506 
C     1.5638005   -3.4197797   -1.3352649 
C     1.0109769   -3.7545214    1.0695323 
C     0.8142649   -4.1048684   -0.3543550 
