60 

C     1.2408703   -3.8523441   -1.0485558 
C     2.3384536   -3.3714220   -0.3611956 
C     2.9231510   -2.2541187   -1.1187814 
C     1.0391526   -2.9519321   -2.2027479 
C     2.0442261   -1.9181555   -2.1874743 
C    -0.3029271   -2.6122254   -2.2323017 
C    -0.0153177   -4.0337105   -0.3789011 
C    -1.0212032   -3.3797198   -1.1749522 
C    -0.0682435   -3.8748999    1.0406517 
C     2.2216333   -2.9391836    1.0174465 
C     1.0431139   -3.1961484    1.7114497 
C     3.3068646   -1.2564132   -0.2076113 
C     2.8258151   -1.6306942    1.1160376 
C     3.3391400    0.0942759   -0.6271203 
C     1.7002056   -0.5383541   -2.4150349 
C     2.5802491    0.4656433   -1.8229908 
C    -0.6934928   -1.2591469   -2.5748186 
C     0.3174548   -0.1961792   -2.6891415 
C    -2.0215109   -0.9300332   -2.2712335 
C    -2.2005392   -2.8459397   -0.6128058 
C    -2.8004377   -1.7498891   -1.3169372 
C    -1.2682946   -3.3646830    1.6007721 
C    -2.3464532   -2.8799359    0.8335133 
C     0.4630599   -2.1344817    2.5615969 
C    -0.9291771   -2.3357461    2.5837276 
C     2.2799196   -0.6043777    1.9486255 
C     0.9721994   -0.8038801    2.5900557 
C     3.4121384    1.0252313    0.4445323 
C     2.7208668    0.6976034    1.6712334 
C     3.1945789    2.4013572    0.2056277 
C     2.2094121    1.8274662   -1.9569562 
C     2.6733400    2.8116022   -1.0166995 
C    -0.1207438    1.1989167   -2.5787447 
C     0.8588196    2.1861269   -2.3173177 
C    -2.4655031    0.4428739   -2.1769230 
C    -1.5322791    1.5248117   -2.2742034 
C    -3.6355211   -0.8554410   -0.6391717 
C    -3.5060734    0.4627923   -1.2099739 
C    -2.8440474   -1.6739805    1.5092051 
C    -1.8404195   -1.2678048    2.4911992 
C    -3.5216713   -0.7078215    0.7996975 
C     0.0441897    0.3260123    2.6919389 
C    -1.3892767    0.0805731    2.5764169 
C     1.9416038    1.8709713    2.0656626 
C     2.3532105    2.9651806    1.2748736 
C     0.5508521    1.6865883    2.4513916 
C     1.5887488    3.7607144   -0.7524426 
C     0.5146020    3.4367197   -1.6029300 
C     1.3930117    3.8410762    0.6849301 
C    -1.8430984    2.7099906   -1.5274962 
C    -0.8002808    3.6315937   -1.1371794 
C    -3.4639679    1.4222096   -0.1678635 
C    -3.2990350    0.6956898    1.0902616 
C    -2.2597459    1.1066954    1.9894897 
C    -2.7699871    2.6064136   -0.4001555 
C    -0.3418980    2.7320063    2.0940694 
C     0.0781594    3.8053337    1.1802940 
C    -0.9835346    3.9539763    0.2478042 
C    -1.7442472    2.4254384    1.8181176 
C    -2.1401155    3.2227779    0.7100390 
