60 

C    -2.9646801   -0.4118417   -2.7033962 
C    -2.1012144   -1.3991036   -3.1334720 
C    -1.1255970   -0.8110311   -4.0564288 
C    -2.4153620    0.8821980   -3.1605619 
C    -1.2934414    0.6218204   -4.0118044 
C    -2.2870643    1.6599630   -1.9958136 
C    -3.2963194   -0.3319982   -1.3278100 
C    -3.0525631    1.0241268   -0.9227803 
C    -2.8718191   -1.3584099   -0.4189440 
C    -1.3804568   -2.2185066   -2.1710228 
C    -1.7314259   -2.2047254   -0.8036693 
C     0.1321628   -1.4048310   -3.8189614 
C     0.0008935   -2.2363088   -2.5924289 
C     1.2934414   -0.6218204   -4.0118044 
C    -0.1321628    1.4048310   -3.8189614 
C     1.1255970    0.8110311   -4.0564288 
C    -1.0304660    2.2958327   -1.6254952 
C    -0.0008935    2.2363088   -2.5924289 
C    -0.6921709    2.4612845   -0.2075320 
C    -2.8718191    1.3584099    0.4189440 
C    -1.7314259    2.2047254    0.8036693 
C    -3.0525631   -1.0241268    0.9227803 
C    -3.2963194    0.3319982    1.3278100 
C    -2.2870643   -1.6599630    1.9958136 
C    -0.6921709   -2.4612845    0.2075320 
C    -1.0304660   -2.2958327    1.6254952 
C     1.0304660   -2.2958327   -1.6254952 
C     0.6921709   -2.4612845   -0.2075320 
C     2.4153620   -0.8821980   -3.1605619 
C     2.2870643   -1.6599630   -1.9958136 
C     2.1012144    1.3991036   -3.1334720 
C     1.3804568    2.2185066   -2.1710228 
C     2.9646801    0.4118417   -2.7033962 
C     0.6921709    2.4612845    0.2075320 
C     1.7314259    2.2047254   -0.8036693 
C     1.0304660    2.2958327    1.6254952 
C    -1.3804568    2.2185066    2.1710228 
C     0.0008935    2.2363088    2.5924289 
C    -2.9646801    0.4118417    2.7033962 
C    -2.4153620   -0.8821980    3.1605619 
C    -2.1012144    1.3991036    3.1334720 
C     0.1321628    1.4048310    3.8189614 
C    -1.2934414   -0.6218204    4.0118044 
C    -1.1255970    0.8110311    4.0564288 
C    -0.0008935   -2.2363088    2.5924289 
C    -0.1321628   -1.4048310    3.8189614 
C     1.7314259   -2.2047254    0.8036693 
C     1.3804568   -2.2185066    2.1710228 
C     3.0525631   -1.0241268   -0.9227803 
C     3.2963194    0.3319982   -1.3278100 
C     2.8718191    1.3584099   -0.4189440 
C     2.8718191   -1.3584099    0.4189440 
C     2.2870643    1.6599630    1.9958136 
C     3.0525631    1.0241268    0.9227803 
C     3.2963194   -0.3319982    1.3278100 
C     1.2934414    0.6218204    4.0118044 
C     1.1255970   -0.8110311    4.0564288 
C     2.1012144   -1.3991036    3.1334720 
C     2.4153620    0.8821980    3.1605619 
C     2.9646801   -0.4118417    2.7033962 
