60 

C    -0.0794663   -4.6508787   -0.3556745 
C     1.0694537   -4.1019223   -1.0136980 
C     1.9776659   -3.7082451   -0.0174049 
C     0.0200517   -4.2829961    1.0754955 
C     1.3096893   -3.7976665    1.3110075 
C    -1.0957442   -3.4538489    1.4389926 
C    -1.1999543   -3.9634608   -0.8496861 
C    -1.9501217   -3.4003186    0.2454672 
C     0.6153042   -3.0469874   -1.9627862 
C    -0.8069493   -3.0407211   -1.9220731 
C     1.3441227   -1.8256970   -2.1398824 
C     2.6383439   -2.4759489   -0.1006692 
C     2.5126594   -1.6485271   -1.2834715 
C     1.5176775   -2.5511464    1.9497304 
C     2.5191723   -1.8179205    1.1821039 
C    -0.9208165   -2.2387049    2.1751070 
C     0.4424724   -1.7690331    2.4595685 
C    -1.9828037   -1.2238105    2.0669754 
C    -2.7278199   -2.2979975   -0.0210838 
C    -2.9176796   -1.2789893    0.9753413 
C    -1.5325182   -1.8404047   -2.1409130 
C    -2.6842923   -1.6355114   -1.3160615 
C     0.6484738   -0.6227090   -2.5972398 
C    -0.8114583   -0.6644432   -2.6492842 
C     1.3361372    0.6826471   -2.5647106 
C     3.0493298   -0.3826918   -1.1495158 
C     2.6337045    0.7254634   -1.9668908 
C     2.7462030   -0.4404045    1.3182394 
C     3.3784592    0.1629200    0.1769273 
C     0.7020262   -0.3427573    2.7065637 
C     1.8983567    0.3504118    2.1829312 
C    -1.7564359    0.0466504    2.6141690 
C    -0.4132420    0.4489696    3.0435617 
C    -2.4239078    1.2382770    2.1204003 
C    -3.3618090   -0.0786627    0.3172751 
C    -3.1917157   -0.3236739   -1.1099857 
C    -3.1276785    1.2104401    0.8749662 
C    -1.5225128    0.5592542   -2.6744768 
C    -2.7627843    0.7083531   -1.9389665 
C     0.5676715    1.9427208   -2.5691319 
C    -0.8461617    1.8531252   -2.6691010 
C     1.0645250    3.1099960   -1.8596739 
C     3.1161772    1.9120672   -1.3142495 
C     3.4504596    1.5408191    0.0608774 
C     2.3373545    3.0501186   -1.2328928 
C     1.9188028    1.8073895    2.0152452 
C     2.7316684    2.3987785    0.9711632 
C     2.2060788    3.4665193    0.1780933 
C    -0.3516383    1.8617074    2.9677552 
C    -1.5767437    2.3419638    2.4140227 
C     0.7436002    2.5528953    2.3728966 
C     0.1978878    3.8507916   -0.9468079 
C     0.8907482    3.9426625    0.3521885 
C    -1.2554079    3.3785543    1.4659041 
C     0.1952690    3.5967643    1.5195404 
C    -2.9058605    2.3155023   -0.0423331 
C    -2.7881816    2.0365355   -1.4228693 
C    -1.6809874    2.7798752   -1.9837397 
C    -1.9292605    3.3821372    0.2496607 
C    -1.1755946    3.6517686   -0.9868972 
