60 

C     0.0310234   -4.4581528    0.1997165 
C     1.1281255   -4.0304485    0.9285121 
C     2.1411001   -3.5011979   -0.0017121 
C     0.3261837   -4.1087717   -1.2288917 
C     1.5719494   -3.3942953   -1.3067926 
C    -0.8043507   -3.5479009   -1.7598266 
C    -1.2888826   -3.9748036    0.5112986 
C    -1.8838390   -3.5684313   -0.7614710 
C    -1.4482137   -3.1125678    1.6178473 
C     1.0026552   -3.0670499    2.0002039 
C    -0.2845919   -2.6381635    2.3501672 
C     2.7651028   -2.4010021    0.6136799 
C     2.0368775   -2.0652556    1.8420032 
C     3.2030404   -1.3758371   -0.2144573 
C     1.6321047   -2.1111240   -1.9985473 
C     2.6339459   -1.2319296   -1.5477157 
C    -0.7963186   -2.2375113   -2.3926264 
C     0.3976580   -1.4776215   -2.5257264 
C    -2.5936777   -2.3900031   -0.8859867 
C    -1.9980997   -1.5890112   -1.9963893 
C    -2.3668618   -1.9888885    1.5318695 
C    -3.0128757   -1.6723249    0.2923478 
C    -0.5039930   -1.2433691    2.6887224 
C    -1.8542546   -0.8929829    2.3089074 
C     1.8441671   -0.7005602    2.1765933 
C     0.5197725   -0.2664338    2.6449577 
C     3.3815790   -0.0748828    0.3226287 
C     2.7180698    0.2802587    1.5344893 
C     2.6187503    0.1734840   -1.8496644 
C     3.3381855    0.8578988   -0.7960885 
C     0.2746011   -0.0130665   -2.6139926 
C     1.4783554    0.7988776   -2.4385137 
C    -2.1473800   -0.2006292   -2.0605378 
C    -1.0238207    0.6312868   -2.4581481 
C    -3.4169050   -0.3535574    0.0929671 
C    -3.1774417    0.3365067   -1.1915844 
C    -2.2609706    0.4523434    2.1061608 
C    -3.2938472    0.6466758    1.1254737 
C     0.1261108    1.1483553    2.5648664 
C    -1.2829762    1.5239697    2.3434227 
C     2.4226633    1.6693469    1.7167216 
C     1.1355655    2.0943945    2.2552844 
C     3.1742845    2.2087210   -0.5736466 
C     2.8697066    2.6408121    0.7814532 
C     1.3723517    2.2185712   -2.2506492 
C     2.3111343    2.9270925   -1.4550254 
C    -1.1182654    2.0888918   -2.1847480 
C     0.0659429    2.8503636   -2.0849065 
C    -3.2691839    1.6953628   -0.9751031 
C    -3.4322162    1.9045608    0.4807336 
C    -2.2699741    2.6086988   -1.4576040 
C    -1.5499897    2.8110494    1.7702855 
C    -2.6237080    2.9569443    0.8262864 
C    -2.0577948    3.5566920   -0.4074229 
C     0.8322920    3.3824358    1.6415501 
C     1.8900205    3.6948157    0.7064439 
C     1.5653306    3.8983700   -0.6567424 
C     0.2178638    3.9164856   -1.0886527 
C    -0.4767930    3.6634328    1.2951245 
C    -0.7892885    4.0510754   -0.1075449 
