60 

C    -1.0018407   -4.5612384    0.0443902 
C     0.4230209   -4.4405779   -0.0959929 
C     0.9561835   -4.0060970    1.1472609 
C    -1.3529066   -3.9167683    1.3186980 
C    -0.1891668   -3.6395457    2.0287916 
C    -2.2555435   -2.8181476    1.0804510 
C    -1.5630267   -3.7329436   -0.9488985 
C    -2.4458710   -2.7510245   -0.3615529 
C     0.7338871   -3.6547464   -1.2838483 
C    -0.5392626   -3.2347936   -1.8492036 
C     1.8280695   -2.7467317   -1.2810973 
C     1.8866225   -2.9638210    1.2041797 
C     2.4979234   -2.4534386    0.0009502 
C     0.0737136   -2.3320591    2.5552882 
C     1.4223569   -1.9899693    2.2035244 
C    -2.1284503   -1.5930601    1.8033636 
C    -0.9031188   -1.2896145    2.5490092 
C    -2.8177299   -0.5001259    1.2271693 
C    -2.6910248   -1.5234198   -1.0160434 
C    -3.1778565   -0.4881561   -0.1724022 
C    -0.6979038   -1.9716844   -2.4718828 
C    -1.8862070   -1.1461601   -2.1772744 
C     1.7593167   -1.6664907   -2.2186627 
C     0.5030950   -1.2936397   -2.8264317 
C     2.5509901   -0.4732618   -2.0869041 
C     3.1723325   -1.2356377    0.1510926 
C     3.3682127   -0.3116275   -0.9588801 
C     1.8749986   -0.6642192    2.2145740 
C     2.9936585   -0.4097516    1.3508561 
C    -0.4576993    0.0948490    2.6647877 
C     0.9581008    0.4141080    2.5703151 
C    -2.6038621    0.8413162    1.6574073 
C    -1.4302509    1.1704224    2.4277063 
C    -3.2196096    0.8781985   -0.5829558 
C    -3.0496272    1.7197441    0.5949061 
C    -1.8436658    0.2260993   -2.5052342 
C    -2.5829915    1.2360533   -1.7722916 
C     0.5401433    0.1232374   -3.0703278 
C     1.7920475    0.6645552   -2.5884877 
C    -0.6214017    0.8709956   -2.9582796 
C     1.8442549    1.9535457   -1.9884097 
C     3.5241123    0.9931963   -0.4353364 
C     3.3032672    0.9115040    1.0130605 
C     2.7861799    2.0987196   -0.8967568 
C     1.3738442    1.7939565    2.2941403 
C     2.5279245    1.9999762    1.4419964 
C     2.4017832    2.8827932    0.2769267 
C    -1.0029979    2.5226509    2.3739629 
C     0.4165406    2.8367611    2.2962628 
C    -2.5387271    3.0005792    0.4851523 
C    -1.6962541    3.4841142    1.5416786 
C    -1.8566618    2.4974971   -1.8404277 
C    -0.5842488    2.2323001   -2.4796745 
C     0.6351787    2.8020578   -1.9759885 
C    -1.9486244    3.4328610   -0.8053817 
C     1.3766616    3.7864345    0.2182202 
C     0.5663765    3.9740059    1.4047862 
C    -0.7186224    4.3434381    0.9671037 
C     0.4997872    3.8240556   -0.9733545 
C    -0.7854303    4.1987256   -0.4860308 
