60 

C    -0.9679157    4.5479428   -0.0606632 
C    -1.7091668    3.8628561    0.9855845 
C    -0.8023897    3.5646994    2.0159118 
C     0.4451801    4.4581673    0.2466575 
C     0.5556625    3.9559169    1.5641316 
C     1.1134104    3.7588318   -0.8347458 
C    -1.1980964    3.8568498   -1.2734526 
C     0.0827904    3.4889325   -1.8464120 
C    -2.4409738    2.7733639    0.3856284 
C    -2.1673751    2.8124497   -1.0578468 
C    -2.5077774    1.5059821    1.0124568 
C    -0.7152418    2.2520203    2.5458463 
C    -1.6404612    1.2390547    2.1690508 
C     1.4180632    2.8818837    1.8378335 
C     0.6773208    1.8685016    2.6008803 
C     2.0976788    2.7622912   -0.5702938 
C     2.3359707    2.4082348    0.8393483 
C     2.2946966    1.6874848   -1.5672907 
C     0.1382767    2.3357557   -2.6015794 
C     1.3001958    1.4791429   -2.5601506 
C    -2.1114967    1.6117518   -1.8213950 
C    -1.0238758    1.4747570   -2.7354191 
C    -2.9098608    0.3688399    0.1877231 
C    -2.6863875    0.4001026   -1.2543507 
C    -2.9879291   -0.8768015    0.8218115 
C    -1.2934190   -0.1266548    2.4894627 
C    -2.2254989   -1.1084711    2.0564079 
C     1.0810753    0.5144305    2.6549082 
C     0.0761365   -0.5386627    2.7383857 
C     2.9271809    1.1627092    1.1393675 
C     2.3517439    0.2280680    2.0979481 
C     3.0430556    0.5198273   -1.2226328 
C     3.5118171    0.3678705    0.1162389 
C     2.7188572   -0.8093723   -1.7156595 
C     0.8989702    0.1463994   -2.9536346 
C    -0.5388065    0.1678435   -3.0776870 
C     1.5605292   -1.0358871   -2.5080358 
C    -2.4308560   -0.8408014   -1.8995915 
C    -1.2808815   -0.9594881   -2.7641243 
C    -3.0061276   -2.1306501    0.1001732 
C    -2.6008735   -2.1126468   -1.2445135 
C    -1.9152974   -2.4632229    2.1519006 
C    -2.4690744   -3.1464263    0.9710225 
C     0.4666792   -1.9355269    2.5173128 
C    -0.5720831   -2.9111191    2.3590258 
C     2.6768219   -1.1155721    1.6799033 
C     3.4593704   -1.0161586    0.4888410 
C     3.0621371   -1.7590256   -0.6580489 
C     1.7671775   -2.1999334    1.8711893 
C     2.3118193   -2.9005702   -0.4610875 
C     1.8429896   -3.2463988    0.8804950 
C     0.7809586   -2.2811357   -2.3399239 
C    -0.6385925   -2.2331110   -2.5062434 
C    -1.5470568   -3.0257178   -1.6972469 
C     1.2641917   -3.2761333   -1.4099418 
C    -1.5552281   -4.0854315    0.5329414 
C    -0.3988346   -4.0393560    1.4595759 
C     0.7470481   -4.1311614    0.6942176 
C    -1.0424265   -4.0171650   -0.8298384 
C     0.3761991   -4.1403598   -0.7403723 
