60 

C    -0.8039188    5.0192284    0.7794246 
C     0.5627310    5.2247261    0.5711403 
C     0.8509625    5.0212535   -0.8279282 
C    -1.4099827    4.5377405   -0.5043873 
C    -0.4027308    4.5277663   -1.4836145 
C    -2.1037645    3.3185253   -0.2299084 
C    -0.9747909    3.9560795    1.7284669 
C    -1.8593116    2.9925087    1.1859089 
C     1.2936017    4.1996971    1.3565348 
C     0.3462037    3.4377806    2.1281402 
C     1.7605328    3.9620295   -0.9202798 
C     2.1038137    3.4733642    0.4443490 
C    -0.1152371    3.2847615   -2.1506927 
C     1.2680896    2.9563283   -1.8539610 
C    -2.0769494    2.2215045   -1.1284005 
C    -1.0150185    2.1838196   -2.1241948 
C    -2.5861542    0.9637514   -0.6255263 
C    -1.8157883    1.6369273    1.6068565 
C    -2.5479636    0.6979946    0.8041446 
C     0.5140967    2.0422911    2.2932288 
C    -0.6689053    1.1602827    2.3381831 
C     2.3035725    2.0952717    0.6101232 
C     1.6779335    1.3973864    1.7194526 
C     1.7094376    1.6268318   -1.7691943 
C     2.4925513    1.2755577   -0.5954212 
C    -0.4943784    0.8762773   -2.4979775 
C     0.9078642    0.5731379   -2.3615881 
C    -2.4884560   -0.1580198   -1.4618833 
C    -1.3806769   -0.2252634   -2.4028346 
C    -2.7300004   -1.5017166   -1.0069449 
C    -2.5767935   -0.6375402    1.2424660 
C    -2.8455420   -1.7478963    0.3645511 
C    -0.5084748   -0.2464033    2.5261761 
C    -1.6123727   -1.1000179    2.2048501 
C     1.8418775   -0.0311196    1.8381500 
C     0.8219848   -0.8540707    2.4774753 
C     2.7636497   -0.0522219   -0.4034538 
C     2.6857236   -0.6772000    0.8989016 
C     1.3369373   -0.8172614   -2.2580213 
C     2.4062487   -1.0829062   -1.3658525 
C    -0.9778419   -1.5911126   -2.5403957 
C    -1.9280376   -2.4134300   -1.8106622 
C     0.4157388   -1.9302562   -2.5121140 
C    -1.5725560   -3.6602676   -1.3166751 
C    -2.2693287   -2.9582164    0.9393684 
C    -1.4852457   -2.5322998    2.0888051 
C    -1.7997185   -3.9849675    0.1036076 
C     0.9368382   -2.2592051    2.4157367 
C    -0.2382785   -3.1388343    2.3394966 
C     2.6813686   -2.0890124    0.7111193 
C     2.5861323   -2.3610778   -0.7321187 
C     1.9695104   -2.9079834    1.6074292 
C     0.7637765   -3.2532293   -2.0891932 
C    -0.2637933   -4.1755116   -1.6538750 
C     1.8911685   -3.4795490   -1.1854918 
C    -0.6710990   -4.7795268    0.5334423 
C     0.1120535   -4.3291241    1.6340055 
C     1.4874982   -4.1701104    1.1498468 
C     0.2143530   -5.0034945   -0.5962213 
C     1.5168593   -4.5139771   -0.2325693 
