60 

C    -0.5883404   -4.2194652    0.4383722 
C     0.4242071   -4.1050408   -0.5105699 
C    -0.1631066   -3.4452273   -1.7102584 
C    -1.8125534   -3.5895884   -0.1145070 
C    -1.5138841   -3.0697924   -1.4007055 
C    -2.3653216   -2.7246399    0.8790919 
C    -0.3792872   -3.6879804    1.7288600 
C    -1.5282801   -2.8413160    2.0332074 
C     0.7915607   -2.9251795    2.0253933 
C     1.6406293   -3.4326072   -0.2141065 
C     1.8530241   -2.7855290    1.0694858 
C     0.7445839   -2.5262744   -2.2239109 
C     1.9534852   -2.6578016   -1.4106868 
C     0.3150405   -1.2192238   -2.6772201 
C    -1.9866625   -1.7829746   -1.7921987 
C    -1.1059258   -0.9392697   -2.5933892 
C    -2.9184263   -1.4581495    0.5095697 
C    -2.9520315   -1.1205446   -0.9120823 
C    -2.8182607   -0.3617747    1.4687348 
C    -1.0886920   -1.6760743    2.6893242 
C     0.3574919   -1.7265737    2.7476092 
C    -1.7923374   -0.4502759    2.4976461 
C     1.1096669   -0.5405135    2.7640089 
C     2.6989881   -1.5820469    1.1247212 
C     2.3906582   -0.4835338    2.0574697 
C     2.8200531   -1.6247366   -1.3485912 
C     3.4051806   -1.2290684   -0.0735075 
C     1.2668456   -0.1244169   -2.6568184 
C     2.5845431   -0.4024288   -2.1397554 
C     0.8173260    1.2786733   -2.6136983 
C    -1.5047829    0.4088048   -2.8279165 
C    -0.5533037    1.5140642   -2.8166329 
C    -3.3861516    0.1759467   -1.2775864 
C    -2.7443279    0.8709019   -2.3492491 
C    -3.2179123    0.9495706    1.0436346 
C    -3.6606777    1.1592494   -0.2699344 
C    -2.4987768    2.1620836    1.4722816 
C    -1.0637889    0.7211146    2.8481007 
C     0.3577500    0.6703050    2.9864655 
C    -1.4258952    2.0336938    2.3351342 
C     0.8805367    1.9657077    2.5949910 
C    -0.2145726    2.8028920    2.1395206 
C     2.9350895    0.8223451    1.8166359 
C     2.1286237    2.0330563    2.0106132 
C     3.8958232    0.0763471   -0.2839658 
C     3.3603107    0.6016255   -1.5632497 
C     3.7352837    1.0719253    0.6660410 
C     1.5894001    2.2994556   -1.8713281 
C     2.2970549    2.9074393    0.8410005 
C     2.8715400    1.9319224   -1.3472531 
C     3.2254568    2.2796809   -0.0078644 
C    -0.0737654    3.5891188    0.9835513 
C     0.8584653    3.2836122   -1.1297457 
C     1.1791383    3.5320485    0.2661926 
C    -1.2386235    2.6717261   -2.2465598 
C    -2.5945723    2.2832946   -1.9895232 
C    -3.1602054    2.4663717   -0.7288718 
C    -2.4066743    3.0686930    0.3285560 
C    -0.5672949    3.4457325   -1.2912651 
C    -1.1633222    3.6546450    0.0267389 
