60 

C    -0.9145987   -4.3816563   -0.5241673 
C    -2.0512044   -3.5874834   -0.6766110 
C    -1.8101491   -2.6320881   -1.7573406 
C     0.0899717   -3.9257653   -1.4495152 
C    -0.4452486   -2.8087474   -2.2030598 
C     1.3007112   -3.7353007   -0.7252578 
C    -0.3882075   -4.1468547    0.8265776 
C     0.9933363   -3.8525886    0.7248836 
C    -2.3854195   -3.0258089    0.6245529 
C    -1.2645365   -3.2516701    1.5292137 
C    -3.0230734   -1.8217827    0.6453848 
C    -2.3862474   -1.3521451   -1.7085477 
C    -3.2567074   -1.0804415   -0.5873734 
C    -1.6620786   -0.2059745   -2.2917208 
C     0.3640791   -1.6539821   -2.4837381 
C    -0.2348194   -0.3240737   -2.5737026 
C     2.1725792   -2.7397061   -1.1466933 
C     1.7475437   -1.7454316   -2.1025688 
C     3.0306633   -2.0567533   -0.1946567 
C     1.5325115   -2.8840782    1.5847576 
C     2.6607111   -2.0880453    1.1615465 
C    -0.7393975   -2.1278681    2.2693781 
C     0.6716622   -2.0327234    2.3814731 
C    -2.7353206   -0.8217547    1.6641723 
C    -1.4957631   -0.8675184    2.3568654 
C    -3.5817295    0.2498463   -0.2295303 
C    -3.2986519    0.4103964    1.2108804 
C    -2.2278043    1.0720037   -2.0844528 
C    -3.2744456    1.2925001   -1.1052058 
C    -1.4176969    2.2759100   -2.1238718 
C     0.6159977    0.8815027   -2.5094525 
C    -0.0029527    2.1783542   -2.2834443 
C     2.5401884   -0.5667716   -1.9084974 
C     3.4099753   -0.7982978   -0.7684852 
C     2.0445903    0.7321321   -2.2060488 
C     3.7638638    0.2784579    0.0610649 
C     2.6284143   -0.8423275    1.9159854 
C     1.3358660   -0.7474894    2.5510589 
C     3.2560576    0.2885403    1.4457085 
C    -0.8137717    0.4220356    2.6095053 
C     0.6500696    0.4892305    2.6292305 
C    -2.8028453    1.6115326    1.6906806 
C    -1.5245667    1.6219476    2.3608251 
C    -3.0848088    2.6115353   -0.5666708 
C    -2.0112265    3.2604362   -1.2629505 
C    -2.8552119    2.7672613    0.8261423 
C    -0.8347280    2.8478144    1.9312273 
C    -1.1889224    3.9285562   -0.2728485 
C    -1.6882082    3.5735942    1.0431610 
C     0.7593958    3.2273051   -1.6203541 
C     0.1630306    3.9212967   -0.4592743 
C     2.7745424    1.8248960   -1.5993666 
C     3.6063299    1.5653697   -0.4437998 
C     2.1032050    3.0419351   -1.3291607 
C     2.7033000    1.5965361    1.7242447 
C     1.3638843    1.7225200    2.2235871 
C     0.5832043    2.8835153    1.7808819 
C     1.0655720    3.6790604    0.6703744 
C     3.1448903    2.4441102    0.6474251 
C     2.3241949    3.4049960    0.1075782 
