60 

C     1.0254853   -4.9855627    0.2536323 
C    -0.2960018   -5.1266911    0.6731912 
C    -1.2130279   -4.9446993   -0.4293621 
C     0.9584246   -4.4480122   -1.1350460 
C    -0.4009643   -4.4195733   -1.5568643 
C     1.7176658   -3.2427336   -1.1781826 
C     1.6323591   -3.9478159    1.0607084 
C     2.1915330   -2.9959160    0.1922525 
C    -0.5630744   -4.1124692    1.7279812 
C     0.6504112   -3.3977946    2.0079060 
C    -2.0347541   -3.8681205   -0.0469472 
C    -1.6894392   -3.3625037    1.3110496 
C    -0.9304553   -3.1432160   -1.9664773 
C    -2.0428998   -2.8654626   -1.0743950 
C     1.2941246   -2.0866808   -1.9054807 
C    -0.0990962   -2.0107647   -2.3023479 
C     1.9893485   -0.8530356   -1.6585978 
C     2.3974069   -1.6644525    0.6179241 
C     2.7166151   -0.7274600   -0.4092498 
C     0.6077601   -1.9894384    2.2357776 
C     1.7188755   -1.1671483    1.7812443 
C    -1.7633911   -1.9708390    1.5594561 
C    -0.6737095   -1.2899928    2.2279666 
C    -2.3990766   -1.5557333   -0.7752237 
C    -2.4957665   -1.1364732    0.6097606 
C    -0.7058591   -0.6969262   -2.3596174 
C    -1.9909484   -0.5386243   -1.7153741 
C     1.5296978    0.3777706   -2.2630368 
C     0.1010211    0.5056947   -2.5450178 
C     2.2870372    1.5680730   -2.0083342 
C     3.1244219    0.5419274    0.0392044 
C     3.1806547    1.6126850   -0.8573025 
C     1.7250440    0.2475838    2.0278943 
C     2.6720519    1.0402323    1.3325839 
C    -0.7236601    0.1473633    2.3768359 
C     0.5145565    0.8965460    2.5176349 
C    -2.6976639    0.2266372    0.8887706 
C    -1.9306339    0.8625510    1.9704329 
C    -2.5125105    0.7284238   -1.4849262 
C    -3.1066916    1.0537401   -0.2159956 
C    -0.5203702    1.8286610   -2.4772209 
C    -1.8892194    1.9245087   -2.0267309 
C     1.6789478    2.8415778   -2.0688961 
C     0.2823790    2.9961093   -2.2182882 
C     2.9645324    2.8486202   -0.1370679 
C     2.5692979    2.4855571    1.2092448 
C     2.1159299    3.6521181   -0.9122483 
C     0.4753559    2.3217802    2.5115586 
C     1.4766980    3.1304787    1.7819049 
C    -1.9557432    2.2777038    2.0709590 
C    -0.7671906    2.9746518    2.4039577 
C    -3.0731503    2.4664833   -0.1175595 
C    -2.3472715    3.0258667   -1.2804551 
C    -2.5955631    3.0860677    1.0212449 
C    -0.1544700    4.0549073   -1.2859450 
C     0.9788309    4.2912228   -0.3619340 
C     0.7540846    4.1679979    1.0443472 
C    -0.6028700    4.1283441    1.4949987 
C    -1.4646935    4.0592605   -0.8071784 
C    -1.6903849    4.1769946    0.6308798 
