60 

C     3.0837275   -2.8261433    1.0458830 
C     1.9237940   -2.8796812    1.9270241 
C     0.8418900   -3.5737650    1.2984578 
C     2.5883880   -3.2098522   -0.2269206 
C     1.3044749   -3.8334352   -0.0684110 
C     2.6908822   -2.0846093   -1.1449876 
C     3.4755151   -1.4654463    0.9567495 
C     3.3426592   -1.0214031   -0.4170316 
C     1.6861763   -1.5862882    2.4644544 
C     2.7159994   -0.7011557    1.8980637 
C     0.3710434   -1.0931258    2.6558419 
C    -0.5093123   -3.1762150    1.5326412 
C    -0.7705094   -1.9297521    2.2653243 
C    -1.4532749   -3.5970184    0.5136105 
C     0.3931676   -3.7365605   -1.1212620 
C    -0.9681222   -3.8863232   -0.8111441 
C     1.6233745   -1.7564546   -2.0440480 
C     0.5296525   -2.6655497   -2.1306426 
C     1.3964536   -0.3647930   -2.4041459 
C     3.0882981    0.3256428   -0.7060491 
C     2.3260680    0.6519494   -1.9071827 
C     2.4857685    0.6640230    1.6670707 
C     2.9829205    1.2450308    0.4268772 
C     0.2420598    0.3617131    2.7719402 
C     1.3325233    1.2549644    2.3297194 
C    -1.0531381    0.9099390    2.8163336 
C    -2.0581908   -1.2642794    2.1069040 
C    -2.1952517    0.0984138    2.4656494 
C    -2.6610942   -2.8680714    0.3338442 
C    -2.9624689   -1.7305568    1.0649973 
C    -1.7301915   -3.0813534   -1.7700711 
C    -0.7971426   -2.2140777   -2.4464038 
C    -2.8032439   -2.5270952   -1.1153171 
C     0.0527865    0.0627727   -2.7683027 
C    -1.0892528   -0.8166354   -2.5922914 
C    -0.2217986    1.4642843   -2.8393029 
C     2.0535464    2.0239838   -2.1589934 
C     0.7973758    2.4097839   -2.7481308 
C     2.6639077    2.5908341    0.1486898 
C     2.3656617    3.0119929   -1.1776507 
C     1.0506563    2.6192777    2.0371870 
C     1.7817236    3.2956641    1.0321236 
C    -1.3281834    2.2862693    2.3778262 
C    -0.3167963    3.1048925    1.9439259 
C    -3.1121280    0.9697694    1.7517779 
C    -2.5552307    2.2627099    1.6429623 
C    -3.5103383   -0.7336198    0.1101067 
C    -3.1282720   -1.1564026   -1.2284743 
C    -2.3336373   -0.2738832   -2.0249515 
C    -3.5463774    0.5874949    0.4458152 
C    -1.4396641    2.0260814   -2.2273344 
C    -2.5432989    2.6942170    0.2547345 
C    -2.4187246    1.1569992   -1.7051981 
C    -3.0734589    1.5955390   -0.5077589 
C     0.2757418    3.5670211   -2.0226697 
C     1.2391321    3.9760654   -1.1047411 
C     0.8763357    4.1446163    0.2577783 
C    -0.4449953    3.9052562    0.7099600 
C    -1.0740164    3.2683637   -1.5978806 
C    -1.4835905    3.5179819   -0.2369761 
