60 

C    -1.3090202   -4.1291766    0.1409132 
C    -0.2043250   -4.0550835    1.0017517 
C     0.9806447   -3.9600020    0.1856984 
C    -0.8220143   -3.8269407   -1.2333119 
C     0.5819136   -3.6828441   -1.1936409 
C    -1.6435524   -2.8023391   -1.7740559 
C    -2.4171356   -3.3265958    0.3834494 
C    -2.7423681   -2.6105606   -0.8435792 
C    -2.4313510   -2.3652414    1.4634885 
C    -0.1231068   -3.0198258    2.0203751 
C    -1.2463623   -2.1378961    2.2482213 
C     1.8910340   -3.1084901    0.8344733 
C     1.2064459   -2.4733596    1.9870587 
C     2.7469940   -2.3573799    0.0540405 
C     1.2088318   -2.6056312   -1.9017004 
C     2.4756978   -2.1837720   -1.3633156 
C    -1.0692610   -1.6478759   -2.3981777 
C     0.3847979   -1.5783410   -2.5438126 
C    -1.8514457   -0.4020808   -2.3455450 
C    -3.1905707   -1.3301146   -0.5083779 
C    -3.1464817   -1.2198732    0.9517897 
C    -2.8665616   -0.2021354   -1.3195238 
C    -2.9601919    0.0164991    1.5108843 
C    -0.9497563   -0.7786873    2.7203495 
C    -1.9403413    0.2271855    2.5052238 
C     1.5214979   -1.1473728    2.3684175 
C     0.4301740   -0.3236420    2.8923188 
C     3.3003724   -1.1159557    0.5878690 
C     2.7037610   -0.5020531    1.7492196 
C     3.0386321   -0.9343160   -1.6922058 
C     3.6710538   -0.3212603   -0.5087398 
C     0.9938678   -0.2636015   -2.8199647 
C     2.3254259    0.0509530   -2.3705242 
C    -1.2525542    0.7684704   -2.8755581 
C     0.1758703    0.8510911   -3.0258689 
C    -1.7217436    2.0641357   -2.5417963 
C    -3.0544777    1.1239185   -0.7212105 
C    -3.0799899    1.2159338    0.7055586 
C    -2.5532092    2.2780135   -1.4206389 
C    -1.6357023    1.6377032    2.4826633 
C    -2.3743611    2.2690701    1.3998417 
C     0.6698061    1.0803820    3.0329427 
C    -0.3621985    2.0732040    2.8023949 
C     2.8326272    0.9100312    1.8174606 
C     1.8943080    1.6570795    2.5813164 
C     3.4390177    1.0718279   -0.5513904 
C     2.6287968    1.3493719   -1.7254159 
C     3.1503563    1.7280031    0.6451745 
C     0.5829581    2.2147524   -2.6213294 
C    -0.5760828    2.9857581   -2.4678640 
C     1.7080839    2.4120948   -1.7340048 
C    -2.0076823    3.4090651   -0.7031724 
C    -1.8043052    3.3452194    0.6901983 
C    -0.7423136    3.7871700   -1.3196631 
C     0.2412999    3.1880518    2.0528608 
C     1.6300153    2.9080648    1.9295163 
C     2.2774492    2.8794093    0.6492801 
C     1.5454532    3.2627952   -0.5266313 
C    -0.4231247    3.7538410    0.9730584 
C     0.2644044    3.8933528   -0.3167894 
