60 

C     0.7783805   -5.1331883    0.0589673 
C     0.1002586   -4.8386294    1.2215092 
C    -1.2471820   -4.3557372    0.9336845 
C    -0.1214147   -4.7451872   -1.0591349 
C    -1.3562242   -4.1911304   -0.5076514 
C     0.6227155   -3.9097147   -1.8832314 
C     1.9572355   -4.2560363    0.0180838 
C     1.9474863   -3.6343464   -1.2238741 
C     0.7969106   -3.7957287    1.9891669 
C     1.9374326   -3.3766143    1.2081394 
C    -1.4698843   -3.2485763    1.7805527 
C    -0.1685727   -2.8474152    2.3976444 
C    -2.2783056   -2.2238396    1.3206236 
C    -1.8927709   -2.9534870   -1.0253587 
C    -2.5840669   -2.1232763   -0.0852665 
C     0.1380088   -2.6666563   -2.3835810 
C    -1.1696001   -2.1927798   -2.0694630 
C     2.2020366   -2.2531111   -1.3741602 
C     1.2288933   -1.7024484   -2.2941868 
C     2.1736045   -1.9835458    1.0736633 
C     2.4961902   -1.4271282   -0.2495307 
C     0.1579666   -1.4685064    2.4623272 
C     1.4293224   -1.0569080    1.9281940 
C    -2.1321475   -0.8773185    1.8128643 
C    -0.9127134   -0.4625088    2.4112412 
C    -2.8750128   -0.7457261   -0.3450619 
C    -2.7581214    0.0126514    0.8805330 
C    -1.4134005   -0.7720428   -2.2776947 
C    -2.4796495   -0.1033270   -1.5439819 
C     1.0144035   -0.3371215   -2.3929172 
C    -0.3292362    0.1070129   -2.6962742 
C     2.4448682   -0.0192170   -0.4574337 
C     1.8840731    0.5561182   -1.6510953 
C     1.6980358    0.3427358    1.8307195 
C     2.4665370    0.8321835    0.7206768 
C    -0.5953151    0.9377576    2.4162065 
C     0.8135989    1.3180573    2.4717890 
C    -2.5081149    1.3992308    0.8964452 
C    -1.5244409    1.9035708    1.8548634 
C    -2.5796163    1.3156021   -1.5518856 
C    -2.7050054    2.0944593   -0.3307516 
C    -0.5230734    1.5079451   -2.7837800 
C    -1.7581093    2.0864102   -2.4249067 
C     1.6867239    1.9881982   -1.7509426 
C     0.5342265    2.4715660   -2.4242883 
C     2.6376199    2.2115126    0.5555214 
C     2.2978340    2.8399327   -0.7585145 
C     1.1713321    2.6750707    2.4406157 
C     2.2735642    3.1025594    1.5875770 
C    -1.1198425    3.2655080    1.7594022 
C     0.1293984    3.6857521    2.2718809 
C    -2.0962172    3.3917609   -0.5425317 
C    -1.4967051    3.3823601   -1.8384584 
C    -0.1027175    3.6982421   -1.9643760 
C    -1.4154378    4.0423818    0.5087029 
C     1.8325689    4.1424230   -0.5051930 
C     1.8964982    4.3496309    0.9517990 
C     0.6325504    4.7149536    1.3853451 
C     0.5013001    4.5055540   -0.9707559 
C    -0.2686770    4.8201125    0.2175426 
