60 

C     0.5183188   -4.5918566    0.5304457 
C    -0.2329515   -4.0200309    1.6382202 
C    -1.5368688   -3.7823545    1.1900820 
C    -0.2457644   -4.3677351   -0.6919979 
C    -1.5393062   -3.9913590   -0.3078227 
C     0.4982070   -3.5006591   -1.5717903 
C     1.7351531   -3.9122654    0.4062728 
C     1.8267635   -3.4183288   -0.9598838 
C     0.5146210   -2.8832848    2.1275702 
C     1.8028637   -2.8996845    1.4417251 
C    -0.1090563   -1.6155610    2.3720525 
C    -2.1956161   -2.5765145    1.4462412 
C    -1.5468144   -1.4662728    2.1132968 
C    -2.1759998   -2.8996670   -0.8977696 
C    -2.8776342   -2.2416742    0.1981502 
C    -0.0836157   -2.2913674   -2.1140386 
C    -1.5028119   -2.0233964   -1.8479907 
C     0.7850865   -1.1394444   -2.4248042 
C     2.6078918   -2.3318791   -1.1870946 
C     2.1836344   -1.2962187   -2.1287766 
C     2.5297856   -1.7166984    1.2175667 
C     3.2106292   -1.6275014   -0.0586055 
C     0.7198105   -0.4152422    2.3574525 
C     2.0839332   -0.4781820    1.8364786 
C     0.0719560    0.8878732    2.4997792 
C    -2.1301105   -0.1461255    1.9409433 
C    -1.3527867    1.0514960    2.1972887 
C    -3.4000372   -1.0285040    0.0110372 
C    -3.2680927   -0.0203516    1.0514776 
C    -2.0342489   -0.6948676   -2.0367430 
C    -3.2387044   -0.3605652   -1.2815164 
C     0.2681099    0.2264185   -2.5376326 
C    -1.1766855    0.4273718   -2.4628416 
C     1.1587290    1.3888145   -2.3190831 
C     2.9857342   -0.1751794   -1.8803116 
C     3.6004751   -0.3738123   -0.5462776 
C     2.5098138    1.1315580   -1.9393728 
C     2.7574932    0.7541854    1.4603400 
C     3.4754121    0.7965456    0.1863088 
C     3.0749913    1.8334183   -0.7779993 
C     0.9067274    2.0379617    2.4730722 
C     2.2277845    1.9691348    1.9065701 
C     0.3796911    3.3472098    2.1274605 
C    -1.8064538    2.3366387    1.6464518 
C    -0.8813523    3.4215858    1.5254618 
C    -3.5992335    1.1881724    0.4299634 
C    -3.6055389    0.9571818   -1.0520649 
C    -2.8790781    2.3645985    0.6844185 
C    -1.6615235    1.7669426   -2.3079519 
C    -2.9125627    2.0161410   -1.6407372 
C    -2.6338237    2.9840376   -0.6120605 
C     0.6316479    2.6985007   -1.9225228 
C    -0.6804789    4.0945017    0.1995516 
C    -0.7621109    2.8674701   -1.9524670 
C    -1.4109848    3.6215582   -0.8916707 
C     2.5565653    3.0086604   -0.3399621 
C     2.4186987    3.1951138    1.1104281 
C     1.3596496    4.0591762    1.3222784 
C     1.3768270    3.5517188   -0.9891166 
C     0.7032423    4.3025979    0.0325204 
