60 

C     0.7481353    4.3853302    1.3664036 
C     1.0910030    4.4676360   -0.0527334 
C    -0.1079855    4.4207441   -0.7791716 
C    -0.6781715    4.1294433    1.4871123 
C    -1.2143505    4.2195012    0.1933118 
C    -0.8631748    2.8655953    2.1996536 
C     1.4094838    3.2573544    1.8682565 
C     0.4490619    2.3495149    2.4884882 
C     2.1019371    3.4667814   -0.3437167 
C     2.3423070    2.7191345    0.8890931 
C     2.0071874    2.7074045   -1.5153410 
C    -0.3075600    3.4760215   -1.8373827 
C     0.7723006    2.7076463   -2.2972860 
C    -2.0556307    3.1961756   -0.3027026 
C    -1.5497031    2.7596036   -1.5917488 
C    -1.8710235    1.9366072    1.8416271 
C    -2.5800580    2.2000036    0.5822962 
C    -1.6957824    0.5418689    2.2653705 
C     0.7190972    0.9753166    2.5297211 
C    -0.3904809    0.0378857    2.6259766 
C     2.6234651    1.3487700    0.8941613 
C     1.9775213    0.5297237    1.9319809 
C     2.5394052    1.3664681   -1.5437430 
C     2.9367416    0.6750514   -0.3695690 
C     0.5683017    1.3581655   -2.7819236 
C     1.7760743    0.6204042   -2.5110717 
C    -1.7637701    1.4167237   -2.0641113 
C    -0.6785104    0.6741897   -2.7101408 
C    -3.1794073    1.1088734   -0.0657000 
C    -2.7770697    0.6955884   -1.3975244 
C    -2.6413625   -0.4171354    1.7845744 
C    -3.4249063   -0.0733505    0.6615346 
C    -2.3389867   -1.8436394    1.6925639 
C    -0.1070762   -1.3963793    2.6103462 
C    -1.1273552   -2.3803832    2.1748685 
C     2.2108247   -0.8287866    1.9275378 
C     1.2541361   -1.7710128    2.4645216 
C     3.0308951   -0.7759692   -0.4121846 
C     2.9350102   -1.4869441    0.8307933 
C     1.7711452   -0.7565799   -2.5075865 
C     2.5722084   -1.4909042   -1.5629040 
C    -0.6892953   -0.7996853   -2.7010816 
C     0.5580678   -1.4882350   -2.7548337 
C    -2.8543324   -0.7589000   -1.4660564 
C    -3.4190947   -1.2100575   -0.2459850 
C    -2.9043139   -2.3267997    0.4288373 
C    -1.8160937   -1.5267608   -2.1045939 
C    -2.1923651   -3.2673289   -0.3271980 
C    -1.6163132   -2.8581419   -1.6166893 
C    -0.7119442   -3.6624926    1.6074708 
C    -1.2611736   -4.0691569    0.3535116 
C     1.6203241   -3.0605252    1.9307012 
C     2.6109970   -2.8460495    0.8628760 
C     0.6922836   -3.9959217    1.5356808 
C     2.0351636   -2.8360255   -1.4898890 
C     0.7582160   -2.8176486   -2.2203504 
C    -0.3368188   -3.5405396   -1.7366037 
C    -0.1509670   -4.3666320   -0.5660472 
C     2.1541715   -3.5742967   -0.2966860 
C     1.0396115   -4.3872449    0.1432851 
