60 

C     1.1825548    4.2482096   -0.4225490 
C     2.3215237    3.5283393   -0.1591389 
C     2.2163257    2.9963165    1.2217668 
C     0.3562955    4.2466493    0.8237589 
C     0.9264537    3.2958585    1.7547168 
C    -0.9554984    4.1139734    0.4318686 
C     0.3176628    3.8691719   -1.5323207 
C    -1.0188604    3.9146827   -1.0375909 
C     0.6810738    2.7497303   -2.3197762 
C     2.7442644    2.4336675   -0.9958314 
C     1.9462205    2.0617237   -2.0923749 
C     2.7233614    1.7089196    1.2404356 
C     3.1742887    1.3692339   -0.1219435 
C     2.0655404    0.7044515    2.0323725 
C     0.1114718    2.2238872    2.3058580 
C     0.7112416    0.9035609    2.5062660 
C    -1.8380821    3.1995878    1.0694828 
C    -1.3360213    2.2977604    2.0849582 
C    -1.9532705    2.8908289   -1.2651825 
C    -2.6430782    2.6445606    0.0043549 
C    -0.2993925    1.7186296   -2.6118395 
C    -1.6186023    1.7431835   -2.0804563 
C     1.7651429    0.6520247   -2.3932594 
C     0.3959193    0.4510658   -2.7554290 
C     3.1861395    0.0314990   -0.5147655 
C     2.4599021   -0.3843270   -1.7158728 
C     2.5305865   -0.5935999    1.8074027 
C     3.2486522   -0.8973675    0.5723939 
C     1.8148923   -1.7821731    2.2057343 
C    -0.1161107   -0.3215647    2.6706922 
C     0.4189174   -1.6891685    2.4504366 
C    -2.1001613    1.1220045    2.3088255 
C    -1.5077970   -0.1593330    2.6203956 
C    -3.3121064    1.4607810    0.1937505 
C    -3.2312872    0.8427202    1.4797318 
C    -2.2948189    0.4624660   -1.8504765 
C    -3.2668148    0.3975429   -0.8068095 
C    -0.2350944   -0.8065938   -2.6205806 
C    -1.6509598   -0.7935314   -2.2654661 
C     1.9691574   -1.7477284   -1.8298408 
C     0.6244312   -1.9749536   -2.3636525 
C     3.1078498   -2.2492530    0.3120838 
C     2.3618704   -2.8597481    1.4353523 
C     2.5285838   -2.7236797   -0.9067774 
C     1.5740428   -3.8680989    0.9515665 
C     1.7731216   -3.8932017   -0.5395793 
C    -0.4422517   -2.7947188    1.9465791 
C     0.1705551   -3.8961127    1.2278781 
C    -2.3514555   -1.2202076    2.0477671 
C    -3.3817666   -0.5671454    1.3252147 
C    -3.5033444   -0.8333269   -0.0841449 
C    -1.8195591   -2.4595069    1.5960415 
C    -2.1919191   -2.0148453   -1.7731224 
C    -2.9961985   -2.0180652   -0.5561824 
C    -2.3903857   -2.9698506    0.3585833 
C    -0.0356249   -3.2170915   -2.0572287 
C     0.5554047   -4.1454874   -1.1011946 
C    -0.4318513   -4.3606172   -0.0062408 
C    -1.4145512   -3.1905554   -1.7609422 
C    -1.6265836   -3.8511775   -0.4456996 
