60 

C    -2.2791897    3.0311210    1.0003558 
C    -3.2161687    2.2320906    0.3887016 
C    -3.0104715    2.2749347   -1.0682668 
C    -1.4105737    3.5816659   -0.0651813 
C    -1.8055405    3.0078295   -1.3246499 
C    -0.0972834    3.6152315    0.3918422 
C    -1.4233921    2.5474985    2.0421402 
C    -0.1215147    3.1426681    1.7942252 
C    -1.5300643    1.2095943    2.5174294 
C    -3.3655942    0.8715532    0.8013012 
C    -2.5944042    0.3830410    1.9186534 
C    -3.1694449    0.9526008   -1.5268471 
C    -3.4896426    0.0696537   -0.3974028 
C    -2.2899365    0.4798103   -2.5055058 
C    -0.7839107    2.4653420   -2.1730009 
C    -1.1392996    1.2782901   -2.8931259 
C     0.9930483    3.2519638   -0.4842213 
C     0.6420378    2.6679508   -1.8048524 
C     2.2032999    2.8833902    0.1616563 
C     1.0016556    2.5811948    2.3377626 
C     2.2243314    2.6520078    1.5876683 
C    -0.3021037    0.5491418    3.0184423 
C     0.9156985    1.2790177    2.9923239 
C    -0.2056182   -0.9139534    3.0321369 
C    -2.4868164   -1.0210924    1.9802654 
C    -1.3614452   -1.6858924    2.6632401 
C    -3.1377808   -1.2959810   -0.4065681 
C    -2.9104053   -1.8612629    0.8949041 
C    -1.9258049   -0.9143559   -2.5459408 
C    -2.3845702   -1.8452284   -1.5562308 
C    -0.1452347    0.3577448   -3.3553409 
C    -0.6023449   -1.0035737   -3.1076977 
C     1.6024707    1.8287610   -2.4097372 
C     1.2001224    0.6694277   -3.2146744 
C     3.0979584    1.9037538   -0.4266384 
C     2.8431209    1.4537187   -1.7175539 
C     2.9502822    1.4632998    1.8324980 
C     2.1825501    0.6181594    2.7122034 
C     3.4903451    0.9532354    0.6002116 
C     1.0597795   -1.5433760    2.7953295 
C     2.2273644   -0.7510020    2.5120220 
C     1.1669652   -2.7531344    2.0041563 
C    -1.2391848   -2.9856239    2.1490763 
C    -2.1884965   -3.0889073    1.0244887 
C     0.0241385   -3.4862001    1.6921546 
C    -1.5483002   -2.9822655   -1.3357827 
C    -1.5514676   -3.6576174   -0.0567279 
C    -0.1680596   -3.9602257    0.3319739 
C     0.3119057   -2.0136153   -2.6761507 
C    -0.1868366   -2.9949379   -1.7913592 
C     0.6613026   -3.5049533   -0.6905093 
C     2.1275839   -0.3904131   -2.9659787 
C     3.1270767    0.0947251   -2.0235964 
C     1.7114923   -1.6672134   -2.5775466 
C     3.4694491   -0.4592039    0.3482366 
C     2.9026418   -1.3150083    1.3532782 
C     2.1930061   -2.5123535    1.0025882 
C     1.9285440   -2.8419922   -0.3836738 
C     3.3259073   -0.8800472   -1.0223210 
C     2.4868218   -2.0209872   -1.3741831 
