60 

C     0.3179419    4.7040704   -0.6459749 
C    -1.0276083    4.4497618   -0.2838499 
C    -1.0937293    4.1407040    1.1183033 
C     1.1368650    4.3471043    0.4980981 
C     0.2886046    4.0199137    1.5939092 
C     2.0617858    3.3432742    0.0919812 
C     0.6465229    3.7524891   -1.6861129 
C     1.7825482    2.9956102   -1.3078307 
C    -1.5980363    3.4900921   -1.2396219 
C    -0.5139412    3.0117354   -2.0975015 
C    -2.5230806    2.5691790   -0.7798272 
C    -1.8061259    2.9994135    1.5496597 
C    -2.6929783    2.3487477    0.6643821 
C     0.4101074    2.7637071    2.2667943 
C    -0.8952968    2.1500670    2.3431403 
C     2.4186504    2.2773016    0.9638300 
C     1.5326533    1.8969250    2.0604555 
C     3.1513239    1.2518507    0.3245597 
C     1.9532888    1.6540347   -1.7850388 
C     2.9156571    0.9097760   -1.0809772 
C    -0.4275435    1.6289076   -2.4812454 
C     0.8608309    0.9480312   -2.4581095 
C    -2.6426224    1.2893443   -1.4217098 
C    -1.6294020    0.8215095   -2.3120378 
C    -2.9707131    0.9772594    0.8425769 
C    -3.1545889    0.3559856   -0.4595986 
C    -1.0718472    0.7560207    2.4449278 
C    -2.2848059    0.2023311    1.8428472 
C     1.3970544    0.4836154    2.4006059 
C     0.0912978   -0.1165994    2.6160917 
C     3.3664238    0.0529256    0.9984617 
C     2.4561073   -0.3928762    1.9945384 
C     3.0370061   -0.5172783   -1.2231995 
C     3.5033269   -1.0270268    0.0236871 
C     0.9287582   -0.5046341   -2.5609812 
C     2.0628233   -1.2509453   -1.9872060 
C    -1.5369976   -0.5840406   -2.4869888 
C    -0.2872163   -1.2295264   -2.7381061 
C    -3.0834448   -1.0393098   -0.6388116 
C    -2.3946291   -1.5247692   -1.7902527 
C    -2.4051345   -1.1805063    1.7507716 
C    -3.0035326   -1.8272200    0.5640009 
C    -0.0817806   -1.5672410    2.5273581 
C    -1.3982084   -2.0604715    2.2715394 
C     2.2560800   -1.8191439    1.7992014 
C     2.9704365   -2.1914559    0.5658983 
C     1.0421092   -2.4512100    2.1209745 
C     1.8906733   -2.6195899   -1.6239085 
C     2.3807705   -3.1004342   -0.3306343 
C    -0.4374991   -2.6340899   -2.3848725 
C    -1.7628839   -2.8198884   -1.7915235 
C     0.6583144   -3.3527080   -1.9020362 
C    -2.5423369   -3.1371412    0.5069044 
C    -1.6124114   -3.3403283    1.6315243 
C    -1.9299518   -3.6914152   -0.6828509 
C     0.7767123   -3.7238437    1.4386397 
C     1.4431744   -3.9945687    0.2030633 
C     0.4415649   -4.3005677   -0.8357547 
C    -0.5778482   -4.1453818    1.2259130 
C    -0.7932183   -4.4474762   -0.2280766 
