60 

C    -0.1372212   -4.4302744    0.3802023 
C     0.9310517   -4.0655362   -0.4860072 
C     1.9142422   -3.3232857    0.2462219 
C     0.0570990   -3.7314773    1.6109663 
C     1.3336845   -3.0874506    1.5759840 
C    -1.0976702   -2.9258789    1.9079702 
C    -1.3607886   -3.9244314   -0.1876397 
C    -2.0458618   -3.1521951    0.8087326 
C     0.3519272   -3.4314240   -1.6580285 
C    -1.1091253   -3.3306039   -1.4668075 
C     1.0271912   -2.3907626   -2.2767074 
C     2.6402118   -2.2735817   -0.3939001 
C     2.2511695   -1.8634303   -1.7266700 
C     3.1717126   -1.2683246    0.4436562 
C     1.5150616   -1.8447508    2.2254776 
C     2.6692256   -1.1111447    1.7863868 
C    -0.9743602   -1.6259108    2.4733867 
C     0.3673207   -1.0875296    2.7243535 
C    -2.0917517   -0.6929374    2.2642849 
C    -2.8553804   -2.1184417    0.3777926 
C    -3.0343874   -0.9533396    1.2123904 
C    -1.8138227   -2.1561127   -1.8732773 
C    -2.8524189   -1.6907309   -1.0032153 
C     0.2940140   -1.2791357   -2.8654085 
C    -1.1073795   -1.1370940   -2.6760891 
C     2.3526794   -0.4892827   -2.1340662 
C     1.1667701   -0.1423191   -2.8906379 
C     3.5273119    0.0651030   -0.0573609 
C     3.0374805    0.4976141   -1.3518972 
C     2.8584093    0.2429817    2.1446785 
C     3.4794482    0.9558148    1.0299853 
C     0.5269899    0.3579157    2.9161819 
C     1.7894326    1.0083169    2.6103802 
C    -1.9188151    0.6753285    2.6185883 
C    -0.5993866    1.2018432    2.8877864 
C    -2.6402743    1.6993686    1.9503474 
C    -3.5086193    0.1115789    0.3644961 
C    -3.2760875   -0.3128833   -1.0029686 
C    -3.3033731    1.4489372    0.7295910 
C    -1.6109300    0.2039734   -2.7191135 
C    -2.7303263    0.6035812   -1.9047826 
C     0.6727823    1.1913376   -2.9312077 
C    -0.7484690    1.3533089   -2.8998968 
C     2.6430269    1.8561699   -1.4985984 
C     1.4910163    2.2206533   -2.3554507 
C     2.8820270    2.2345508    0.9217155 
C     1.8520690    2.3332190    1.9439526 
C     2.6364540    2.7608819   -0.3657631 
C    -0.5232730    2.5763333    2.3569466 
C    -1.7671270    2.8486286    1.7763551 
C     0.6750683    3.0704566    1.7262792 
C    -2.8396780    2.4423597   -0.2503404 
C    -2.5422768    2.0022404   -1.5395162 
C    -1.3493610    2.4821151   -2.2185424 
C    -1.9029739    3.3403876    0.4288957 
C     0.8798285    3.3581902   -1.7999551 
C     1.5262498    3.6363735   -0.5260041 
C     0.5274556    3.7891207    0.4612424 
C    -0.5361692    3.4520918   -1.6191502 
C    -0.7711030    3.8194938   -0.2262257 
