60 

C    -3.6375085   -0.5466056    2.4393723 
C    -3.7274609    0.8001756    1.8540307 
C    -4.1993379    0.6817840    0.5216751 
C    -3.7490889   -1.4794297    1.3384320 
C    -4.2230007   -0.7811895    0.1893956 
C    -2.5238398   -2.2309855    1.2679703 
C    -2.4015151   -0.6903503    3.0425164 
C    -1.7029468   -1.7997768    2.3862908 
C    -2.5187012    1.5033425    2.1399775 
C    -1.7267797    0.6083920    2.9825817 
C    -1.8319433    2.2431488    1.1081027 
C    -3.6962784    1.5870087   -0.4332255 
C    -2.4931427    2.3582057   -0.1404530 
C    -3.5956369    1.1537351   -1.7931128 
C    -3.7629076   -1.1949019   -1.0700849 
C    -3.6488238   -0.2095091   -2.1233279 
C    -1.8793166   -2.4620822    0.0111690 
C    -2.5833823   -2.0392253   -1.1568655 
C    -0.4125825   -2.5726408   -0.0404885 
C    -0.3232427   -1.7604976    2.2924049 
C     0.3709211   -2.3581557    1.1463705 
C    -0.3575685    0.6466425    2.9704562 
C     0.3575685   -0.6466425    2.9704562 
C    -0.3709211    2.3581557    1.1463705 
C     0.3232427    1.7604976    2.2924049 
C     0.4125825    2.5726408   -0.0404885 
C    -1.6909927    2.4195873   -1.3550728 
C    -2.3820876    1.7263832   -2.3824444 
C    -0.2714067    2.4192261   -1.3296485 
C    -2.4807340   -0.5060652   -2.9233442 
C    -1.8238589   -1.5947510   -2.3207458 
C    -1.7060699    0.7203955   -3.1198627 
C     0.2714067   -2.4192261   -1.3296485 
C    -0.4103144   -1.7100441   -2.3885835 
C     1.6909927   -2.4195873   -1.3550728 
C     1.8319433   -2.2431488    1.1081027 
C     2.4931427   -2.3582057   -0.1404530 
C     1.7267797   -0.6083920    2.9825817 
C     2.5187012   -1.5033425    2.1399775 
C     1.7029468    1.7997768    2.3862908 
C     2.4015151    0.6903503    3.0425164 
C     1.8793166    2.4620822    0.0111690 
C     2.5238398    2.2309855    1.2679703 
C     2.5833823    2.0392253   -1.1568655 
C     0.4103144    1.7100441   -2.3885835 
C    -0.3141586    0.6672365   -3.1134855 
C     0.3141586   -0.6672365   -3.1134855 
C     1.8238589    1.5947510   -2.3207458 
C     2.3820876   -1.7263832   -2.3824444 
C     1.7060699   -0.7203955   -3.1198627 
C     2.4807340    0.5060652   -2.9233442 
C     3.6962784   -1.5870087   -0.4332255 
C     3.7629076    1.1949019   -1.0700849 
C     3.5956369   -1.1537351   -1.7931128 
C     3.6488238    0.2095091   -2.1233279 
C     3.7274609   -0.8001756    1.8540307 
C     3.6375085    0.5466056    2.4393723 
C     3.7490889    1.4794297    1.3384320 
C     4.1993379   -0.6817840    0.5216751 
C     4.2230007    0.7811895    0.1893956 
