60 

C    -1.8744077   -3.9739695    0.3398580 
C    -0.5669172   -4.1403701   -0.2324293 
C     0.4081847   -3.7505948    0.7075361 
C    -1.7105352   -3.2708337    1.6012233 
C    -0.3331088   -3.0869251    1.8171521 
C    -2.4957579   -2.0574068    1.5676188 
C    -2.5416197   -3.0601667   -0.5016921 
C    -3.1089397   -1.9883927    0.2608170 
C    -0.5126350   -3.4796313   -1.5379108 
C    -1.7347320   -2.7208160   -1.6773731 
C     0.6881720   -2.9158136   -1.9475726 
C     1.6724393   -3.2503844    0.2838011 
C     1.8692419   -2.9604952   -1.1079038 
C     2.3604483   -2.4333812    1.2338030 
C     0.1957102   -1.8607413    2.3879648 
C     1.5826728   -1.6856611    2.2336188 
C    -2.0457186   -0.8360692    2.1703412 
C    -0.6541629   -0.6857465    2.5955998 
C    -2.7732558    0.3024162    1.7732413 
C    -3.3894451   -0.7588371   -0.3565087 
C    -3.5866820    0.3073713    0.5768843 
C    -1.7451903   -1.3896298   -2.1675036 
C    -2.7598590   -0.4575829   -1.6472684 
C     0.6780374   -1.6398661   -2.6326592 
C    -0.4912499   -0.8423505   -2.7134626 
C     2.7144307   -1.8455769   -1.4930677 
C     1.9853714   -1.0411304   -2.4445389 
C     3.3853757   -1.5731055    0.8202179 
C     3.5321867   -1.1939659   -0.5499550 
C     2.1950276   -0.3880595    2.4316797 
C     3.3621261   -0.3541893    1.6234759 
C    -0.0595466    0.6488713    2.6883569 
C     1.3960140    0.7804368    2.6143085 
C    -2.2510199    1.6498983    1.9852339 
C    -0.8788416    1.8286784    2.3908833 
C    -3.6182271    1.6431762    0.1271841 
C    -2.8654576    2.5133887    1.0593804 
C    -2.6296216    0.9145208   -1.9818896 
C    -3.2061751    1.9445956   -1.1612317 
C    -0.3009588    0.6097548   -2.7971855 
C    -1.3779166    1.4510348   -2.4744538 
C     2.1555457    0.3447639   -2.4852103 
C     1.0151754    1.1833253   -2.6708268 
C     3.7068943    0.2629595   -0.5847165 
C     3.6490305    0.7574514    0.7999565 
C     3.0612022    1.0095647   -1.5662575 
C     1.9820420    2.0081384    2.1229434 
C     3.0249115    1.9651309    1.0998311 
C    -0.2611477    3.0395304    1.9231772 
C     1.1536102    3.1126289    1.8263110 
C    -2.0806162    3.4345423    0.2954798 
C    -2.2752216    3.0885516   -1.0943303 
C    -1.1630101    2.7882450   -1.8859500 
C    -0.7972816    3.7250624    0.7480260 
C     1.2484760    2.4513336   -1.9921092 
C     2.4945551    2.3207782   -1.2644778 
C     2.5950455    2.8610182    0.0306012 
C     1.5098384    3.6355135    0.5288427 
C     0.1629834    3.2217773   -1.4967276 
C     0.3045100    3.8372344   -0.2001368 
