60 

C    -1.1351449    4.5678869    0.7439916 
C    -0.2573662    4.6930078   -0.4352140 
C    -0.9153106    4.0917000   -1.5219963 
C    -2.2761497    3.7748924    0.4112333 
C    -2.1543750    3.5001895   -0.9796519 
C    -2.2772013    2.6295171    1.3005950 
C    -0.3958327    3.9162994    1.7595282 
C    -1.0939805    2.7183857    2.1639093 
C     1.0611045    4.2504042   -0.0658446 
C     0.9922510    3.8224942    1.3492677 
C     1.7720727    3.4298084   -0.9629114 
C    -0.2733080    3.0715970   -2.2987600 
C     1.0927572    2.8276700   -2.1113643 
C    -2.2672315    2.1842850   -1.4785140 
C    -1.1459674    1.8982478   -2.3640326 
C    -2.6101634    1.3562753    0.8260805 
C    -2.7026816    1.1419360   -0.6333113 
C    -2.1955102    0.2035088    1.6163496 
C    -0.3660751    1.5456726    2.5437451 
C    -0.9786667    0.2381765    2.3973454 
C     1.7139799    2.7231641    1.7727272 
C     1.0601546    1.6189342    2.4852029 
C     2.7014686    2.4384969   -0.4618297 
C     2.7140989    2.1207777    0.9133972 
C     1.6149215    1.4889240   -2.2960080 
C     2.7410727    1.3401645   -1.4048094 
C    -0.6576696    0.5774712   -2.5138087 
C     0.7827348    0.3566476   -2.5686525 
C    -2.5567023   -0.1781332   -1.1294862 
C    -1.5140578   -0.5200891   -2.0886476 
C    -2.6786517   -1.0259463    1.1799965 
C    -3.0032843   -1.1845489   -0.2373754 
C    -2.1879387   -2.2828614    1.6692187 
C    -0.2095534   -0.9941398    2.4805677 
C    -0.8568654   -2.2942195    2.2291195 
C     1.8070320    0.4263299    2.2806407 
C     2.8673378    0.7510298    1.3219938 
C     1.2336435   -0.8723237    2.3344854 
C     3.1248111    0.0746150   -1.0075540 
C     3.2611393   -0.2223475    0.4139839 
C     1.2904261   -0.9867859   -2.3089324 
C     2.5269026   -1.0802978   -1.6048745 
C    -1.0630982   -1.8975721   -2.1766692 
C     0.3857758   -2.1499313   -2.2737308 
C    -2.8279352   -2.5130423   -0.5542748 
C    -2.5582899   -3.2727630    0.6836464 
C    -1.8944946   -2.9178877   -1.5713169 
C    -1.7258744   -4.3196273    0.3650192 
C    -1.3430094   -4.1514960   -1.1029710 
C    -0.0411943   -3.4535348    1.9353597 
C    -0.5341301   -4.5264002    1.0976319 
C     1.9597557   -1.9606938    1.6793940 
C     2.8830154   -1.5803404    0.6300299 
C     2.7120603   -2.1760412   -0.6797840 
C     1.3565480   -3.2269591    1.5589822 
C     0.8943561   -3.3980823   -1.7674783 
C     0.0121703   -4.4079838   -1.2194871 
C     0.5002011   -4.8044592    0.1118951 
C     2.0022025   -3.3327667   -0.8258724 
C     1.6337200   -4.0472350    0.3898257 
