60 

C    -0.7260667   -5.0056438   -0.3961283 
C     0.3208275   -4.6498291   -1.2618941 
C     1.4162857   -4.1047772   -0.5164472 
C    -0.2879266   -4.6064357    0.9710861 
C     1.0255633   -3.9993544    0.8858463 
C    -1.2995177   -3.8310165    1.5418350 
C    -1.8309553   -4.1549468   -0.7294638 
C    -2.3093672   -3.5662551    0.4668621 
C    -0.0989025   -3.6060532   -2.1999247 
C    -1.4274562   -3.2310417   -1.8351205 
C     1.9062589   -2.9565272   -1.2028624 
C     0.9155883   -2.6008564   -2.2342033 
C     2.5197864   -1.9355492   -0.4894024 
C     1.3211443   -2.7749806    1.5571627 
C     2.3466701   -1.9258186    0.9679708 
C    -1.0359171   -2.5918483    2.1828853 
C     0.2800196   -2.0617667    2.3124527 
C    -2.6352816   -2.2159801    0.5229470 
C    -2.0358302   -1.6445134    1.7236886 
C    -1.7603575   -1.8513950   -1.7763870 
C    -2.5778975   -1.3736979   -0.6634635 
C     0.5860270   -1.2383412   -2.3804085 
C    -0.8088528   -0.8553023   -2.2854903 
C     2.6708950   -0.6532413   -1.1580136 
C     1.6100129   -0.2473214   -2.0627639 
C     3.4070705    0.3322186   -0.4556020 
C     2.6748295   -0.7343681    1.6337147 
C     3.4670444    0.2468809    0.9961110 
C     0.4095839   -0.6266921    2.5793264 
C     1.6857934   -0.0460130    2.4689892 
C    -1.9049572   -0.2767584    1.8623994 
C    -0.7164912    0.2914815    2.4598101 
C    -2.7354460   -0.0028866   -0.4516833 
C    -2.6635901    0.5220287    0.9183796 
C    -1.1368461    0.5372356   -2.2192963 
C    -2.3285551    0.9343747   -1.4892588 
C     1.2972557    1.1466318   -2.2378865 
C    -0.1005801    1.5478269   -2.4302754 
C     3.2222670    1.6877866   -0.7906834 
C     2.1978552    2.1042307   -1.6558956 
C     3.0960015    1.5321740    1.5207830 
C     1.9037506    1.3707667    2.3303553 
C     3.0816888    2.4695266    0.4709590 
C    -0.5234241    1.7294554    2.3731928 
C     0.8222972    2.2872790    2.2050241 
C    -2.6881814    1.8789686    1.1371202 
C    -1.6370648    2.5146055    1.9321455 
C    -2.6366466    2.2932521   -1.3031468 
C    -3.0027389    2.7686362    0.0422757 
C    -0.4592144    2.9179403   -2.2523767 
C    -1.7750187    3.2921711   -1.8383188 
C     1.6518667    3.3374779   -1.0929888 
C     2.0518069    3.3919430    0.3366513 
C     0.9781735    3.4528587    1.3124582 
C     0.4441802    3.8072892   -1.4977527 
C    -1.4748276    3.8277850    1.3849694 
C    -2.4524734    4.0387345    0.2968939 
C    -1.7116483    4.4060429   -0.8683762 
C    -0.1741627    4.1747562    0.9023281 
C    -0.3543482    4.5268522   -0.5211087 
