60 

C    -1.3572613   -4.2356838   -0.6882494 
C    -0.0717302   -4.4135126   -0.0760700 
C    -0.1587888   -3.8818230    1.2619428 
C    -2.2257555   -3.5439434    0.2394579 
C    -1.4734316   -3.2441565    1.4193118 
C    -2.8623627   -2.4771462   -0.4634702 
C    -1.2025124   -3.4001440   -1.8141457 
C    -2.1533371   -2.3075832   -1.7350377 
C     0.9339080   -3.8849263   -0.9591259 
C     0.2164569   -3.1314019   -1.9982643 
C     2.0778894   -3.3256214   -0.3937450 
C     0.9604514   -3.2521706    1.8095935 
C     2.1549343   -3.2110949    1.0392841 
C     0.8493639   -1.9477597    2.4987569 
C    -1.5779968   -1.9422917    2.0408130 
C    -0.3784977   -1.2577463    2.5828047 
C    -3.1800522   -1.3422534    0.2469200 
C    -2.6201872   -1.1089479    1.5641459 
C    -3.2276249   -0.0706345   -0.4161454 
C    -1.8030136   -1.0249492   -2.1800923 
C    -2.5219831    0.1423084   -1.6252191 
C     0.6283299   -1.8416066   -2.3705531 
C    -0.4231591   -0.8354440   -2.6684808 
C     2.6438251   -2.1076422   -0.9488887 
C     1.9604562   -1.3551435   -1.9346013 
C     2.8560647   -1.9940825    1.3569480 
C     2.0858391   -1.2242432    2.2750532 
C     3.2888912   -1.3845067    0.1511048 
C     2.1131896    0.1961052    2.2191768 
C    -0.3454802    0.2171864    2.7281297 
C     0.9242788    0.9203289    2.6238904 
C    -2.6169702    0.3085728    1.7839177 
C    -3.1861349    0.9380666    0.6140233 
C    -1.5706504    0.9783273    2.4886260 
C    -2.9047472    2.2570855    0.2985977 
C    -2.0668191    1.4991237   -1.9225440 
C    -2.3589611    2.5761772   -1.0264142 
C    -0.0219293    0.4618368   -2.9441430 
C    -0.8919699    1.6290809   -2.7293229 
C     2.2895921    0.0625888   -2.0805829 
C     1.3700119    0.8941365   -2.7862665 
C     3.3941457   -0.0052118    0.1220024 
C     2.9856038    0.7921661    1.2465560 
C     3.0892390    0.7242677   -1.0928785 
C     2.7510291    2.1190054    0.7393562 
C     2.8517199    2.0920901   -0.7202783 
C     0.9223750    2.3403029    2.3629562 
C     1.8192066    2.9307573    1.3468697 
C    -1.5257525    2.4077592    2.3178716 
C    -2.2859516    3.0560003    1.2805839 
C    -0.2631672    3.0764118    2.3506927 
C    -1.4445218    3.6857156   -0.8323950 
C     1.0449564    3.8996570    0.5713140 
C    -1.4207901    3.9989488    0.5797309 
C    -0.2031386    4.0613242    1.2543787 
C    -0.0508982    2.7453905   -2.5715370 
C     1.3391034    2.2821404   -2.5709044 
C     2.0028504    2.9117498   -1.4816132 
C    -0.2216684    3.7160163   -1.5474640 
C     1.0635331    3.8310426   -0.8363776 
