60 

C     0.6123769    4.6683736    0.2719768 
C    -0.1309171    4.1795548    1.4346570 
C     0.7457921    3.4206570    2.2237957 
C     1.8826812    3.9759953    0.2452161 
C     2.0153058    3.2757084    1.4503902 
C     1.9575412    3.1684553   -0.9669859 
C    -0.1034348    4.2394484   -0.8603984 
C     0.7298889    3.3977597   -1.7023750 
C    -1.3605397    3.5577224    1.0028034 
C    -1.3956930    3.7099925   -0.4580087 
C    -1.8076268    2.3249010    1.5662006 
C     0.3894922    2.1380841    2.6825032 
C    -0.9188087    1.5978959    2.4823375 
C     2.4171786    1.9167125    1.5053434 
C     1.5194285    1.2484101    2.4155379 
C     2.5350006    1.8578279   -0.9471355 
C     2.8248435    1.1947883    0.3341780 
C     2.1585140    0.9911824   -2.0097000 
C     0.1357597    2.3490385   -2.4658988 
C     0.9359428    1.2109802   -2.7412083 
C    -1.9915485    2.7337951   -1.2349741 
C    -1.2627631    2.0815455   -2.3242201 
C    -2.7452773    1.5211778    0.7778996 
C    -2.8217800    1.7377171   -0.6298161 
C    -3.0668921    0.2068604    1.2250158 
C    -1.0649992    0.1663686    2.6739039 
C    -2.2600968   -0.4567433    2.2172189 
C     1.4111197   -0.1347805    2.4481347 
C     0.1177285   -0.6866113    2.8285664 
C     2.8709512   -0.2419639    0.4282271 
C     2.3532504   -0.8904057    1.6285374 
C     2.4164388   -0.4123395   -1.9721591 
C     2.8883400   -1.0504696   -0.7995817 
C     0.3775644   -0.0788805   -3.0660390 
C     1.3723562   -1.0666792   -2.7610292 
C    -1.8047792    0.7620163   -2.5013884 
C    -2.8690332    0.5979370   -1.5399947 
C    -1.0025574   -0.3648682   -2.8734182 
C    -3.5369389   -0.7941318    0.2984363 
C    -3.2283891   -0.6560136   -1.0865846 
C    -2.3127604   -1.8882164    1.9262712 
C    -3.0397995   -2.0612378    0.7059335 
C    -0.0093327   -2.0934870    2.7110854 
C    -1.2159540   -2.6974677    2.1395027 
C     2.2315694   -2.3051942    1.6582769 
C     1.0777293   -2.8687109    2.2752807 
C     2.7149360   -2.4857804   -0.7377728 
C     2.5362558   -3.1139181    0.5087028 
C     1.0257867   -2.3885672   -2.5407949 
C     1.8562755   -3.1721080   -1.7006040 
C    -1.3799151   -1.7233956   -2.4076205 
C    -2.4933324   -1.8470650   -1.5240757 
C    -2.4353514   -2.7572811   -0.4030860 
C    -0.3783999   -2.7324717   -2.3084198 
C    -0.8238656   -3.7274086    1.1793546 
C     0.5653321   -3.9456973    1.3929528 
C     1.4753481   -4.1345189    0.3552509 
C     1.0096921   -4.0787258   -0.9844773 
C    -1.3264669   -3.6352708   -0.1841473 
C    -0.3731673   -3.7404962   -1.2615773 
