60 

C    -0.3208168    4.5361777    0.5135323 
C     0.9960825    4.2154709    0.8332028 
C     0.9683176    3.3022447    1.9962605 
C    -1.2059520    3.7165114    1.3877103 
C    -0.4017287    2.9198566    2.2412651 
C    -2.1700843    3.0945047    0.5384852 
C    -0.7853347    4.4157165   -0.8272792 
C    -1.9613242    3.5438538   -0.8024957 
C     0.0840184    3.9170525   -1.8231751 
C     1.8654745    3.6150731   -0.1523018 
C     1.4004413    3.4400045   -1.4925223 
C     1.8990255    2.2968754    1.8098848 
C     2.5220312    2.5050487    0.4775735 
C     1.6504027    0.9611830    2.3005916 
C    -0.7423774    1.5397928    2.4877385 
C     0.3022763    0.5544406    2.6826657 
C    -2.5641659    1.7507583    0.7875274 
C    -2.0129764    1.0775951    1.9555580 
C    -2.8987001    0.9120089   -0.3554386 
C    -1.8391581    2.5659266   -1.8476583 
C    -0.6086574    2.8330017   -2.5231617 
C    -2.2553888    1.2277459   -1.6264025 
C     1.5724123    2.1345095   -2.1197095 
C     0.2857252    1.7652822   -2.7238420 
C     2.9293263    1.3689670   -0.2321623 
C     2.3772886    1.1223202   -1.5753965 
C     2.5449142   -0.0076267    1.8342196 
C     3.2564137    0.2335451    0.5646827 
C     2.3046132   -1.4203082    1.9506033 
C    -0.0112685   -0.8872967    2.7101082 
C     1.0189072   -1.9045408    2.3647824 
C    -2.3351586   -0.2785866    2.1404641 
C    -1.3646140   -1.2601299    2.5966127 
C    -3.2469414   -0.4257154   -0.1047283 
C    -3.1855602   -0.9307279    1.2173719 
C    -2.8720414   -1.5139229   -0.9987898 
C    -1.5302176    0.1443654   -2.2678171 
C    -0.1699731    0.4235382   -2.6948263 
C    -1.9168640   -1.2329794   -2.0042240 
C     2.1491411   -0.2626058   -1.9959636 
C     0.8560217   -0.6113946   -2.5828613 
C     3.4403413   -1.0007194   -0.0353488 
C     2.9970700   -2.0487707    0.8775000 
C     2.8552045   -1.2959494   -1.3186069 
C     2.4325114   -3.1099875    0.1543596 
C     2.3482092   -2.6535175   -1.2547837 
C     0.6312115   -3.1809328    1.8531350 
C     1.3538049   -3.8002264    0.7402964 
C    -1.7592225   -2.5634255    2.0531007 
C    -2.8446744   -2.3321432    1.1626433 
C    -2.7754330   -2.7459897   -0.2059730 
C    -0.7851484   -3.5101275    1.6812256 
C     0.3808097   -4.3827019   -0.1319783 
C    -1.8544890   -3.7483093   -0.5484297 
C    -0.9522159   -4.2264121    0.4638174 
C    -0.9796349   -2.2804288   -2.3450620 
C     0.4283811   -1.9498431   -2.5748650 
C     1.2264122   -3.0147426   -1.9998551 
C    -1.0452806   -3.5484587   -1.7320910 
C     0.3186130   -4.0048495   -1.4791694 
