60 

C     1.1219615    4.4603900    1.0394729 
C     1.5947274    4.4848988   -0.2798027 
C     0.4450611    4.2967976   -1.1663874 
C    -0.3185491    4.3316415    1.0487252 
C    -0.7505309    4.2969311   -0.3442060 
C    -0.6254054    3.2188059    1.8685682 
C     1.7187730    3.3582525    1.7834376 
C     0.6523409    2.5852784    2.3113423 
C     2.4679168    3.3473933   -0.4295635 
C     2.6073773    2.6845354    0.8764813 
C     0.6955122    3.1428401   -1.9584503 
C     1.9850443    2.5724838   -1.5228708 
C    -0.3377991    2.2215530   -2.3353205 
C    -1.7615788    3.4043757   -0.6748507 
C    -1.6372734    2.5027172   -1.8160711 
C    -1.7252024    2.3682973    1.5837581 
C    -2.4188209    2.6158251    0.3502693 
C    -1.7388859    1.0136689    2.1262027 
C     0.7351673    1.1672029    2.4091204 
C    -0.4832491    0.3732412    2.5254073 
C     2.6829299    1.2961427    0.8983804 
C     1.9184300    0.5188647    1.8770820 
C     2.1972023    1.1816998   -1.5538567 
C     2.8552545    0.6262957   -0.3846490 
C     0.0002595    0.8226461   -2.6409326 
C     1.3235951    0.2933066   -2.3051234 
C    -1.0538891   -0.1218482   -2.7224263 
C    -2.5982228    1.4460346   -1.6540188 
C    -3.1254825    1.5434893   -0.3005158 
C    -2.3739806    0.1931927   -2.1969187 
C    -2.8126277    0.1795805    1.7091783 
C    -3.4445087    0.3995824    0.3943871 
C    -2.7319657   -1.2014271    1.8923593 
C    -0.3705151   -1.0769431    2.5614985 
C    -1.5565460   -1.8439440    2.3225635 
C     2.0301018   -0.9091650    1.8661544 
C     0.9255010   -1.7428885    2.3243632 
C     3.0544875   -0.7256741   -0.3473213 
C     2.9426221   -1.4730968    0.9030691 
C     1.5552970   -1.1368567   -2.2463802 
C     2.6515139   -1.5906792   -1.4284114 
C    -0.8479164   -1.5297199   -2.5365859 
C     0.4508187   -2.0894668   -2.4119668 
C    -2.9073150   -0.9949376   -1.5685860 
C    -3.5063949   -0.8844626   -0.2912106 
C    -3.1989106   -1.8876307    0.6719287 
C    -1.9927864   -2.0788296   -1.8246439 
C    -1.4830024   -3.0993605    1.5773739 
C    -2.3911141   -2.9975531    0.4216362 
C    -1.8001746   -3.1556060   -0.9009306 
C     0.9370983   -3.1344386    1.9655054 
C    -0.2933667   -3.7566576    1.4713169 
C     2.9206128   -2.8274804    0.5597127 
C     2.7303537   -2.9124629   -0.9315711 
C     1.9867255   -3.6924148    1.1417284 
C     0.5208330   -3.3998720   -1.8176442 
C    -0.5795345   -3.8664841   -0.9970120 
C     0.0193097   -4.4374281    0.2132708 
C     1.7380974   -3.8605902   -1.1833689 
C     1.4006230   -4.5200469    0.0773030 
