60 

C     0.5735831   -4.8600577   -0.8417701 
C     1.7478662   -4.0690561   -0.7507167 
C     2.0284746   -3.7761857    0.6280471 
C    -0.0297400   -4.8480992    0.4982533 
C     0.8379596   -4.1765040    1.3999927 
C    -1.3534438   -4.3456365    0.4036697 
C    -0.3381057   -4.1259902   -1.6916357 
C    -1.5585193   -3.9430187   -1.0124252 
C     1.6228134   -2.9124521   -1.6334926 
C     0.2930308   -2.9112214   -2.1945291 
C     2.2238226   -1.6844637   -1.3099235 
C     2.4049516   -2.4887834    1.0052372 
C     2.7493112   -1.5041491    0.0262589 
C     0.4160473   -3.0265508    2.1366772 
C     1.4610715   -2.0210327    2.0193161 
C    -1.8187992   -3.2699258    1.1968847 
C    -0.9337858   -2.5306928    2.0860858 
C    -2.2658018   -2.7238193   -1.0654302 
C    -2.6293387   -2.4438418    0.3075344 
C    -0.4302470   -1.6690232   -2.3439858 
C    -1.7944366   -1.6048931   -1.8407315 
C     1.7276696   -0.4971398   -1.9865178 
C     0.3297097   -0.4315791   -2.4119405 
C     2.4086875    0.6822932   -1.7032046 
C     2.9637174   -0.1845585    0.5107059 
C     3.1918741    0.7998644   -0.4757767 
C     1.2653217   -0.6472644    2.2576624 
C     2.2858629    0.2453070    1.7385752 
C    -1.1615962   -1.0915103    2.3178511 
C    -0.0693779   -0.1454290    2.5209750 
C    -2.9671310   -1.1781826    0.6653317 
C    -2.3546672   -0.5124460    1.8005149 
C    -2.3543060   -0.3049199   -1.5505860 
C    -3.1105950   -0.1760837   -0.3484130 
C    -0.3249977    0.8698907   -2.4479686 
C    -1.7351430    0.9134583   -2.0649008 
C     1.8598667    1.9893989   -1.9918217 
C     0.4642929    2.1011426   -2.3445141 
C     3.2455511    2.1712865   -0.1417446 
C     2.4872825    2.9311121   -1.1350610 
C     2.1343643    1.6219462    1.9723794 
C     2.7635347    2.5829428    1.1070265 
C    -0.2966305    1.3068329    2.4684503 
C     0.8322827    2.1565909    2.3213774 
C    -2.5608106    0.8954342    1.6371830 
C    -3.1930190    1.0794486    0.3379470 
C    -1.6030597    1.8554966    2.0588808 
C    -2.3034912    2.1537718   -1.6555916 
C    -3.0252372    2.2312273   -0.3827546 
C    -0.1537390    3.3414173   -1.9806406 
C    -1.5671829    3.3782096   -1.7359582 
C     1.7317930    3.9555519   -0.4709445 
C     1.8975537    3.7482873    0.9493195 
C     0.7336275    3.5083347    1.7287116 
C     0.4542713    4.2290934   -0.9824273 
C    -1.6980528    3.1682928    1.4759708 
C    -2.5306635    3.3882324    0.3143511 
C    -1.8638081    4.2452188   -0.6133036 
C    -0.5109979    3.9777527    1.2692944 
C    -0.5994709    4.5766746   -0.0517546 
