60 

C     4.7414423   -0.6770855    0.2494599 
C     4.7287275    0.4179976   -0.6217244 
C     4.1797128    1.5429252    0.0329522 
C     4.0604702   -0.2554717    1.5040947 
C     3.6664990    1.1081788    1.3663654 
C     3.0499692   -1.1976908    1.7894234 
C     3.9242756   -1.6926840   -0.3217193 
C     3.0311817   -2.1693070    0.6744641 
C     3.8362855    0.0902977   -1.7895473 
C     3.3421641   -1.2337782   -1.6037294 
C     3.2239121    2.1044739   -0.8680111 
C     2.9208147    1.1400199   -1.9581828 
C     2.1662609    2.7805791   -0.3387928 
C     2.3611488    1.5334119    1.8013694 
C     1.7935933    2.6334186    1.0854464 
C     1.7828748   -0.8132239    2.3344390 
C     1.3892360    0.5836386    2.3681478 
C     0.7735108   -1.8011171    2.2575307 
C     1.8410245   -2.7933093    0.2942656 
C     0.8478502   -2.8991942    1.3020094 
C     1.9824063   -1.5226367   -1.8702874 
C     1.3748247   -2.6086827   -1.0873733 
C     1.5415355    0.8884217   -2.3047219 
C     1.0864781   -0.4789877   -2.3741490 
C     0.9553450    2.9175397   -1.0765239 
C     0.5564299    1.9216813   -2.0313371 
C     0.4476316    2.9865218    1.1951343 
C    -0.0007790    3.4147190   -0.1447003 
C    -0.0402475    0.9062985    2.4375458 
C    -0.4898031    2.2151026    1.9716866 
C    -0.6027013   -1.5101074    2.4692084 
C    -1.0473786   -0.1609069    2.5370295 
C    -0.4651800   -3.3336762    1.0069007 
C    -1.3855052   -2.5693086    1.8394993 
C     0.0702423   -2.9528920   -1.3601164 
C    -0.8079144   -3.5685809   -0.3539732 
C    -0.3488442   -0.7493298   -2.4774150 
C    -0.7622519   -2.0999251   -2.2141272 
C    -0.8724894    1.6788650   -2.1805933 
C    -1.3442578    0.3116451   -2.4147239 
C    -1.3155506    3.4542876   -0.4784429 
C    -1.7727156    2.6377039   -1.6034532 
C    -1.8648885    2.4685244    1.7130618 
C    -2.2735974    3.3198900    0.5979457 
C    -2.4568434    0.0837183    2.1718439 
C    -2.8621679    1.4149982    1.8311477 
C    -2.6843134   -2.3247083    1.4145865 
C    -3.2264882   -0.9857600    1.5981432 
C    -2.1329327   -3.3313918   -0.7580580 
C    -2.0984025   -2.4071339   -1.9237947 
C    -3.1053444   -2.8399224    0.1252213 
C    -2.7400738   -0.0298599   -2.0549624 
C    -4.0174341   -0.7058064    0.4075468 
C    -3.0761677   -1.4026158   -1.7702036 
C    -3.7618810   -1.7296867   -0.5337203 
C    -3.1131340    2.2858755   -1.2655392 
C    -3.4593557    2.8097877    0.0523017 
C    -3.8584740    1.6615004    0.8170942 
C    -3.5493517    0.9396458   -1.3865837 
C    -4.1393784    0.5931129   -0.0793585 
