60 

C     0.0745240    4.7562321   -0.7580268 
C    -1.2436702    4.5982013   -0.3833105 
C    -1.3115888    4.1272721    0.9906418 
C     0.9147603    4.3761792    0.3716151 
C     0.0479133    3.8810319    1.4380025 
C     1.8316302    3.4357826   -0.1142311 
C     0.3340131    3.8016169   -1.8504832 
C     1.4697934    3.0819171   -1.5338686 
C    -1.8661873    3.5598637   -1.2265737 
C    -0.8816614    3.0184705   -2.1193343 
C    -2.2395746    3.0519811    1.0279246 
C    -2.5724809    2.6826481   -0.3761854 
C    -2.0366344    2.0102623    1.9319536 
C     0.3598457    2.6312624    2.1169053 
C    -0.7236827    1.7999991    2.5018360 
C     2.3426450    2.3888950    0.6882051 
C     1.6157925    1.9216936    1.8414673 
C     3.1476810    1.4662869   -0.0507537 
C     1.6361307    1.7264681   -1.9739262 
C     2.7306996    1.0691093   -1.4133227 
C    -0.8072650    1.6004253   -2.3079398 
C     0.4929628    0.9359783   -2.4134771 
C    -2.7104240    1.3280554   -0.7245213 
C    -1.9086582    0.7861657   -1.8103797 
C    -2.5844465    0.7220570    1.6577515 
C    -3.0533544    0.4149974    0.3489694 
C    -0.5794114    0.3648572    2.7053243 
C    -1.7935496   -0.2913178    2.3213786 
C     1.8164125    0.5251898    2.2573307 
C     0.6625696   -0.3071118    2.6115007 
C     3.6549297    0.3548706    0.5777361 
C     2.9738388   -0.1495518    1.7527524 
C     2.9257723   -0.3343394   -1.5354352 
C     3.7177490   -0.7458098   -0.4053374 
C     0.5994299   -0.5090789   -2.4112107 
C     1.8536531   -1.1647966   -2.0098618 
C    -1.8788701   -0.6297469   -2.0152912 
C    -0.6379954   -1.2924767   -2.4343815 
C    -3.1730831   -0.9331211    0.0346504 
C    -2.8482878   -1.4182128   -1.2879372 
C    -1.8727890   -1.6620193    1.9800217 
C    -2.8612374   -1.9958923    0.9837491 
C     0.6104004   -1.7605411    2.3512668 
C    -0.6589317   -2.4590836    2.0660261 
C     2.9492942   -1.5626133    1.6104155 
C     3.4148839   -1.9201094    0.2455925 
C     1.8197186   -2.3567701    1.8678006 
C     1.8175204   -2.5445193   -1.5194526 
C     2.5527429   -2.8828052   -0.3108134 
C     1.7487951   -3.3635590    0.8047859 
C    -0.5504000   -2.7050929   -2.2937729 
C     0.6473927   -3.3023935   -1.7646522 
C    -2.7584113   -2.8195370   -1.2002524 
C    -2.7752672   -3.1862394    0.2420008 
C    -1.6823375   -3.5017678   -1.7810295 
C    -0.6308155   -3.6938632    1.3107035 
C     0.5842278   -4.0404094    0.5804636 
C     0.2042432   -4.2986828   -0.7928853 
C    -1.7242229   -4.0978341    0.4565064 
C    -1.1867278   -4.4884736   -0.8566307 
