60 

C    -0.7551681   -5.0900298    0.5388895 
C     0.2914695   -5.2521477   -0.4281800 
C     1.5099338   -4.8644703    0.1375784 
C    -0.1596457   -4.3756474    1.7198970 
C     1.2286514   -4.2548524    1.4807372 
C    -0.9172100   -3.1875073    1.9756175 
C    -1.6898225   -4.1963387   -0.0046265 
C    -1.9447407   -3.1420231    0.9412783 
C     0.0207327   -4.3443436   -1.5788247 
C    -1.2311119   -3.7332481   -1.3559070 
C     2.0614210   -3.8131975   -0.6662409 
C     1.1464659   -3.4677077   -1.7680001 
C     1.8077290   -2.9551063    1.5100379 
C     2.4201572   -2.7424262    0.1818650 
C    -0.2995103   -1.9268447    2.2813250 
C     1.1256130   -1.8196436    2.0647033 
C    -1.0820814   -0.7088250    2.1549966 
C    -2.4601466   -1.9261962    0.5084986 
C    -2.3070756   -0.7784836    1.3847951 
C    -1.4541707   -2.3802204   -1.7087309 
C    -2.4543372   -1.6604708   -0.9272982 
C     0.9480491   -2.0992285   -2.0969471 
C    -0.3895401   -1.5584542   -2.2628949 
C     2.5065439   -1.4464621   -0.3234971 
C     1.8847960   -1.1135315   -1.5686546 
C     1.6725127   -0.5105612    1.7922134 
C     2.5811797   -0.3973695    0.6761264 
C    -0.4609303    0.5954218    2.3141738 
C     0.9871483    0.6993101    2.1713821 
C    -1.2580103    1.8133909    2.1173347 
C    -2.9478937    0.4086736    0.9771522 
C    -2.5061578    1.7015544    1.4252946 
C    -2.7764849   -0.3822480   -1.3249071 
C    -3.3554120    0.5195345   -0.3946001 
C    -0.5864359   -0.1089660   -2.4191020 
C    -1.8709404    0.4086460   -2.1694624 
C     1.7741167    0.2811607   -1.8904430 
C     0.5294530    0.8488342   -2.3771682 
C     2.9456948    0.8370138    0.2028400 
C     2.6950032    1.1368473   -1.2150961 
C     1.6280987    1.9968331    1.9017320 
C     2.7296836    2.0321784    0.9579531 
C    -0.5944831    3.0825744    2.0626724 
C     0.8491348    3.1929958    2.0151220 
C    -1.1254508    4.1694476    1.2479267 
C    -2.7758155    2.6477287    0.3414793 
C    -3.0562743    1.8538282   -0.8011762 
C    -2.0844308    1.8041724   -1.8622095 
C    -1.9792041    3.7610231    0.1583296 
C     0.3049330    2.2891831   -2.2686617 
C    -1.0433352    2.7796835   -1.9316810 
C    -1.2023192    3.9268150   -1.0671969 
C     2.5824630    2.5141471   -1.3113401 
C     2.8272001    3.1153276    0.0191181 
C     1.4171338    3.1379412   -1.8638242 
C     1.1641712    4.3862520    1.2308838 
C    -0.0695122    4.9640829    0.7580043 
C    -0.0685174    4.7372022   -0.6885228 
C     2.0571445    4.2530703    0.1285956 
C     1.2095349    4.3416775   -1.1033604 
