60 

C    -2.2334034   -3.7714581    0.8502948 
C    -1.1120207   -4.2113391    0.0866960 
C     0.0921220   -4.0073280    0.8433588 
C    -1.6948469   -3.0417898    1.9879801 
C    -0.2703485   -3.1237714    1.9717044 
C    -2.2798170   -1.7466434    2.0359728 
C    -2.9013966   -2.7973693    0.0667765 
C    -3.1090541   -1.6148983    0.8439807 
C    -1.1780693   -3.6468173   -1.2576278 
C    -2.2409425   -2.6637580   -1.2369156 
C     0.0234093   -3.3523187   -1.9049542 
C     1.2834657   -3.8051015    0.1458857 
C     1.2561987   -3.6891192   -1.2824745 
C     2.2523468   -2.8456315    0.6631866 
C     0.5466912   -1.9844803    2.2915050 
C     1.9069490   -1.9703944    1.7407447 
C    -1.5260595   -0.6180923    2.4729269 
C    -0.0897030   -0.7161316    2.6479857 
C    -2.0999412    0.6364217    2.1324619 
C    -3.2346511   -0.3775946    0.2078272 
C    -3.0299394    0.7570852    1.0402511 
C    -2.0678757   -1.3744283   -1.7959322 
C    -2.8189372   -0.2657866   -1.1968944 
C     0.2080175   -2.0297807   -2.5239498 
C    -0.7983790   -1.0501509   -2.4744303 
C     2.2203993   -2.6643537   -1.6293383 
C     2.9625989   -2.2935312   -0.4832590 
C     1.5953740   -1.6355736   -2.3972129 
C     3.4997216   -1.0063594   -0.4372473 
C     2.6509012   -0.7481844    1.8441598 
C     3.5885317   -0.3785549    0.8241586 
C     0.6745741    0.5395173    2.6546513 
C     2.0530169    0.4650661    2.3471495 
C    -1.3937448    1.8854652    2.2537338 
C     0.0019153    1.8554246    2.5053914 
C    -2.9194479    2.0760018    0.5064913 
C    -2.0191527    2.8521475    1.3609676 
C    -2.5880851    1.0179919   -1.6775816 
C    -2.8551490    2.2225845   -0.8930085 
C    -0.3869598    0.3457117   -2.6489503 
C    -1.4215683    1.3118075   -2.5203012 
C     1.9892672   -0.2576327   -2.2482609 
C     3.0932093    0.0172456   -1.3980500 
C     0.9885317    0.7793367   -2.4796633 
C     3.5271544    1.0402132    0.6372082 
C     2.7139370    1.5875839    1.6582614 
C     3.1841106    1.3003967   -0.7306604 
C     0.7384577    2.9940428    1.9775747 
C     2.0529030    2.7615128    1.3909034 
C    -1.2696308    3.9043404    0.8205429 
C     0.1038686    3.9866043    1.2073150 
C    -2.0445914    3.2775166   -1.4289102 
C    -1.1140403    2.6702823   -2.3994595 
C    -1.3245293    4.1392779   -0.6201147 
C     1.2654636    2.1620110   -2.0587227 
C     2.3219898    2.3789815   -1.0500571 
C     2.0360370    3.2870967    0.0369392 
C     0.9114891    4.1519871   -0.0260963 
C     0.2105344    3.1242346   -2.1355132 
C     0.0690978    4.1604841   -1.1194011 
