60 

C    -1.6816687   -4.1960687    0.8297562 
C    -0.6854784   -4.5581082   -0.1553649 
C     0.5903866   -4.4956091    0.4718126 
C    -1.0231572   -3.6905250    2.0028431 
C     0.3654679   -3.8883537    1.8054852 
C    -1.4850213   -2.3438938    2.2430926 
C    -2.4906737   -3.1481445    0.3009801 
C    -2.4969996   -2.0555069    1.2217336 
C    -0.9278142   -3.7563833   -1.3297255 
C    -2.0963052   -2.8634334   -1.0444325 
C     0.1601623   -3.1951201   -2.0010021 
C     1.6577427   -3.7912320   -0.1351129 
C     1.5006350   -3.2602526   -1.4430996 
C     1.2864911   -2.8272831    2.0000286 
C     2.2152126   -2.8790103    0.8727401 
C    -0.5842720   -1.3013268    2.5939397 
C     0.8561376   -1.5460353    2.4928545 
C    -1.0720332    0.0626828    2.4748686 
C    -2.6717512   -0.7560512    0.7510010 
C    -2.2271091    0.3001995    1.6308489 
C    -2.1769533   -1.5447720   -1.5407603 
C    -2.6958032   -0.4872929   -0.6762135 
C     0.0151461   -1.9039671   -2.6586135 
C    -1.1936354   -1.1387816   -2.5504117 
C     2.1449289   -2.0175546   -1.8073672 
C     1.2779775   -1.2268604   -2.6586780 
C     2.8791736   -1.7336514    0.5006588 
C     2.9365205   -1.3105987   -0.8978969 
C     1.7042631   -0.3921265    2.2536307 
C     2.7522616   -0.5445919    1.2937403 
C    -0.1967368    1.1863259    2.7651930 
C     1.2368932    0.9609428    2.5410394 
C    -0.7381686    2.5073606    2.6174791 
C    -2.5667010    1.6144303    1.2543430 
C    -1.9600521    2.6900859    1.8982926 
C    -2.6854416    0.8978352   -1.1190084 
C    -2.7972921    1.9444794   -0.1614809 
C    -1.1025493    0.2052263   -2.9121281 
C    -2.0075770    1.2203377   -2.3429122 
C     1.3699369    0.1936977   -2.7472790 
C     0.1694398    0.8446252   -3.1513242 
C     2.9938453    0.1256596   -0.9306200 
C     3.1024342    0.5646725    0.4431196 
C     2.2757232    0.9340313   -1.8758374 
C     1.9961813    2.0529841    2.0114911 
C     2.7754995    1.8373262    0.8145767 
C     0.1029710    3.6075176    2.1943664 
C     1.4097853    3.3459744    1.8419067 
C    -1.7885276    3.7611525    0.8986769 
C    -2.2470270    3.2691244   -0.3784523 
C    -0.5416752    4.3350523    1.0703733 
C    -1.4081276    2.4779752   -2.5031824 
C    -0.0168634    2.2198636   -2.8901680 
C    -1.4154880    3.4877798   -1.5054121 
C     1.9843205    2.3271514   -1.5049022 
C     2.3768917    2.8079654   -0.2027973 
C     1.6318664    3.8066401    0.4581125 
C     0.4006505    4.3515807   -0.0405150 
C     0.8346488    2.9919954   -2.0781157 
C    -0.0226915    3.9198594   -1.3061713 
