60 

C    -4.0201206    1.0930263    0.6670796 
C    -4.2461081    0.0359309   -0.2225003 
C    -3.7701623    0.4132428   -1.5535718 
C    -3.3060355    2.1134713   -0.0846667 
C    -3.0915940    1.6541673   -1.4473724 
C    -2.1976992    2.5283912    0.6533882 
C    -3.2886170    0.8652654    1.8918261 
C    -2.2087756    1.8240048    1.9447256 
C    -3.0066021   -0.4366939    2.3130654 
C    -3.7869797   -1.2918800    0.0674424 
C    -3.3206481   -1.5554426    1.3797984 
C    -3.0985337   -0.7296695   -2.0965187 
C    -3.0185113   -1.7708368   -1.0754727 
C    -2.0363285   -0.5136105   -2.9366194 
C    -1.8261171    1.8497458   -2.1095834 
C    -1.5039320    0.8499238   -3.0830486 
C    -0.9463350    2.8641177    0.0002034 
C    -0.7162864    2.5137940   -1.4084666 
C     0.1351365    2.9972693    0.8693781 
C    -0.9986020    1.5659004    2.6207891 
C     0.0838902    2.4033190    2.2203065 
C    -1.7375843   -0.7386795    2.9656697 
C    -0.6995721    0.2303014    3.1326605 
C    -2.2978164   -2.4964764    1.5151525 
C    -1.3807342   -2.0637601    2.5718325 
C    -1.7967940   -2.5139041   -0.9159163 
C    -1.5067750   -2.9375082    0.4171116 
C    -0.8931501   -1.4230534   -2.9449583 
C    -0.6651775   -2.3169544   -1.8438577 
C    -0.1795767    0.7097850   -3.5078767 
C     0.1795767   -0.7097850   -3.5078767 
C     0.6651775    2.3169544   -1.8438577 
C     0.8931501    1.4230534   -2.9449583 
C     1.5067750    2.9375082    0.4171116 
C     1.7967940    2.5139041   -0.9159163 
C     1.3807342    2.0637601    2.5718325 
C     2.2978164    2.4964764    1.5151525 
C     0.6995721   -0.2303014    3.1326605 
C     1.7375843    0.7386795    2.9656697 
C    -0.0838902   -2.4033190    2.2203065 
C    -0.1351365   -2.9972693    0.8693781 
C     0.9986020   -1.5659004    2.6207891 
C     0.7162864   -2.5137940   -1.4084666 
C     0.9463350   -2.8641177    0.0002034 
C     1.5039320   -0.8499238   -3.0830486 
C     2.0363285    0.5136105   -2.9366194 
C     1.8261171   -1.8497458   -2.1095834 
C     3.0185113    1.7708368   -1.0754727 
C     3.0985337    0.7296695   -2.0965187 
C     3.3206481    1.5554426    1.3797984 
C     3.0066021    0.4366939    2.3130654 
C     3.7869797    1.2918800    0.0674424 
C     2.2087756   -1.8240048    1.9447256 
C     2.1976992   -2.5283912    0.6533882 
C     3.2886170   -0.8652654    1.8918261 
C     3.0915940   -1.6541673   -1.4473724 
C     3.7701623   -0.4132428   -1.5535718 
C     4.2461081   -0.0359309   -0.2225003 
C     3.3060355   -2.1134713   -0.0846667 
C     4.0201206   -1.0930263    0.6670796 
