60 

C     0.5083856   -4.6080173    1.0809653 
C    -0.9000654   -4.3404464    1.0866240 
C    -1.3907821   -4.4231163   -0.2586645 
C     0.9307350   -4.4573294   -0.3178019 
C    -0.1953329   -4.3922781   -1.1529474 
C     1.9006772   -3.4013516   -0.4020098 
C     1.1355226   -3.5617864    1.7921946 
C     2.1006220   -2.9139899    0.9590739 
C    -1.1583666   -3.1297502    1.8557557 
C     0.1237068   -2.6665778    2.3523719 
C    -2.0821701   -2.1409100    1.3983747 
C    -2.2637052   -3.4514437   -0.7102862 
C    -2.7014793   -2.3529401    0.1012420 
C    -0.3674979   -3.3101351   -2.0905559 
C    -1.7201007   -2.8672765   -1.9574026 
C     1.8513522   -2.4260769   -1.4485843 
C     0.6467229   -2.2968019   -2.2719542 
C     2.6186593   -1.2553441   -1.2052419 
C     2.4766861   -1.5759371    1.2259494 
C     3.0542524   -0.8828491    0.1371531 
C     0.4016639   -1.3005589    2.5655844 
C     1.7304242   -0.7956697    2.2085746 
C    -1.9022068   -0.7754694    1.8416546 
C    -0.7032070   -0.3609240    2.5410061 
C    -2.6193924    0.2759892    1.1400915 
C    -2.7867434   -1.2137983   -0.7695076 
C    -2.0633628   -1.5221735   -2.0102154 
C    -2.8383074    0.0848787   -0.2904205 
C     0.2404622   -0.9468473   -2.6518470 
C    -1.1498586   -0.5468870   -2.4910597 
C     2.4441862   -0.0567077   -1.9486621 
C     1.2242340    0.1312038   -2.6681991 
C     3.2576772    0.5231893    0.1674726 
C     3.0075531    1.0429065   -1.1640657 
C     1.9485805    0.5920431    2.2321257 
C     2.8012660    1.2596326    1.2662920 
C    -0.4267017    1.0590627    2.7453058 
C     0.9256105    1.5214547    2.6353844 
C    -2.5428388    1.5917109    1.6020697 
C    -1.4500732    2.0114067    2.4874795 
C    -2.7943226    2.6677094    0.7039010 
C    -2.5049346    1.1651457   -1.2134601 
C    -1.5273766    0.8415894   -2.2682783 
C    -2.5891161    2.4756516   -0.7142841 
C     0.7743594    1.4757108   -2.8286838 
C    -0.6161531    1.8387656   -2.6420896 
C     2.5626016    2.3415792   -1.3256109 
C     1.5309891    2.5675170   -2.2959971 
C     2.3148498    2.6151906    1.1031256 
C     1.2177337    2.8147566    2.0514337 
C     2.2509687    3.1904531   -0.1698896 
C    -1.1448251    3.3795127    2.1830861 
C    -2.0333362    3.8061613    1.1396518 
C     0.1956836    3.7273575    1.7784604 
C    -1.6533778    3.5177243   -1.1414364 
C    -0.6748534    3.1941460   -2.0758000 
C     0.6752120    3.6229428   -1.8474524 
C     1.0968406    4.0215659   -0.5286560 
C    -1.2688179    4.2813373    0.0423612 
C     0.1210874    4.3350988    0.4362985 
