60 

C     0.8653464    4.3619925    0.5107537 
C    -0.5080485    4.4505888    0.5111900 
C    -1.0081164    4.0283347   -0.8313308 
C     1.2819626    4.0525112   -0.8855098 
C     0.1096199    3.6215964   -1.6231812 
C     2.3766353    3.2363533   -0.8211013 
C     1.5394452    3.4199005    1.3836495 
C     2.6131092    2.8928127    0.6116271 
C     0.7628603    2.4778675    2.1832550 
C    -1.2612343    3.7563408    1.4842719 
C    -0.6598227    2.7278587    2.2737604 
C    -2.1276757    3.1954761   -0.6436520 
C    -2.3741787    3.1336078    0.7824263 
C    -2.2696296    1.9974044   -1.4332310 
C     0.1020467    2.3351148   -2.2866043 
C    -1.1630681    1.5945008   -2.3189406 
C     2.4669110    2.0347341   -1.5769028 
C     1.3554319    1.5576365   -2.3506809 
C     3.0050510    1.5674855    0.6718847 
C     3.1454650    1.0929074   -0.7163608 
C     1.2115249    1.0941471    2.3027205 
C     2.4146181    0.6574217    1.6162321 
C     0.2357132    0.0389427    2.6697134 
C    -1.6032572    1.6014726    2.3184102 
C    -2.6822378    1.9118333    1.3936930 
C    -1.2030138    0.2779209    2.4993004 
C    -3.0680535    0.9705999   -0.8566775 
C    -3.1888986    0.8924073    0.5931904 
C    -3.0269803   -0.3802096   -1.3299188 
C    -1.1410630    0.2387573   -2.7487690 
C    -2.1413940   -0.7273504   -2.3455937 
C     1.3187151    0.1156385   -2.6181932 
C     0.0822071   -0.4948647   -2.9278580 
C     3.1073165   -0.2432806   -0.9736420 
C     2.2979188   -0.7594057   -2.0343138 
C     2.6796863   -0.7507906    1.4007278 
C     3.1301173   -1.2022747    0.1153292 
C     0.6433733   -1.2901859    2.7156745 
C     1.9404048   -1.6950106    2.1788888 
C    -0.2771273   -2.4296515    2.5607455 
C    -2.0542376   -0.8190933    1.9808213 
C    -3.0255091   -0.4628598    0.9974566 
C    -3.1814760   -1.2820594   -0.1881265 
C    -1.5811076   -2.1894860    2.0000968 
C    -2.6893060   -2.5555893   -0.2158079 
C    -2.0429521   -3.1090850    0.9706328 
C    -1.5504490   -2.0519687   -2.3503686 
C    -0.1642478   -1.9121240   -2.6805106 
C    -1.9562776   -3.0241863   -1.4029652 
C     2.0446882   -2.1447221   -1.7180037 
C     2.6771062   -2.4391240   -0.4274941 
C     0.8202263   -2.7758238   -2.0738353 
C     1.8349005   -3.0313713    1.7832884 
C     0.4977567   -3.5356304    2.1249081 
C     2.1373579   -3.4293084    0.4242647 
C    -1.1963610   -4.1521889    0.5066849 
C    -1.0401038   -3.9884128   -0.9570244 
C     0.3580866   -3.8838195   -1.2500352 
C     0.0710014   -4.3523690    1.0577803 
C     1.0592231   -4.2219199   -0.0367455 
