60 

C    -0.1231138   -3.7407358    1.7600578 
C    -0.7266737   -4.1588811    0.5508268 
C    -2.0286045   -3.5587157    0.4444308 
C    -1.0218160   -2.7940676    2.3791978 
C    -2.1861681   -2.6476211    1.5525967 
C    -0.2834974   -1.6337902    2.7137679 
C     1.1944273   -3.1632578    1.7416272 
C     1.1230730   -1.8644147    2.4037816 
C     1.9877216   -3.2769305    0.5946038 
C    -0.0240129   -3.9698373   -0.6988794 
C     1.3534423   -3.7131291   -0.6694551 
C    -2.1514435   -3.0365971   -0.8846449 
C    -0.8826440   -3.1864604   -1.5838473 
C    -2.8963409   -1.9012059   -1.0871145 
C    -2.7620797   -1.3600208    1.3480452 
C    -3.4028358   -1.1579404    0.0727860 
C    -0.8449438   -0.3252458    2.5949512 
C    -2.1674618   -0.1739607    1.9961063 
C     0.1020237    0.7812251    2.6374977 
C     2.0069023   -0.8020760    2.1106446 
C     1.5374809    0.5504458    2.4073221 
C     2.9329190   -2.2222790    0.2904421 
C     3.0270346   -1.0352325    1.0843937 
C     1.8833027   -2.8754274   -1.6791236 
C     2.9542545   -2.0815075   -1.1333823 
C    -0.3636178   -2.0940048   -2.3588817 
C     1.0603080   -1.9972925   -2.4474112 
C    -2.4860283   -0.8978145   -2.0648471 
C    -1.1314860   -0.8602623   -2.5441087 
C    -3.6784095    0.1400861   -0.3722229 
C    -3.1468813    0.2922591   -1.7296578 
C    -2.5779710    1.1502275    1.5713969 
C    -3.3412661    1.2923128    0.3537331 
C    -0.4162491    2.0816895    2.4370494 
C    -1.7576817    2.2685172    1.9196443 
C     0.4137795    3.1958838    1.9755060 
C     2.3170752    1.6440553    1.9260453 
C     1.7202244    2.9381029    1.6105720 
C     3.5555264    0.1164701    0.4194694 
C     3.3104372    1.3874141    0.9407824 
C     2.9528923   -0.8131604   -1.7651362 
C     1.7122588   -0.7023807   -2.5443489 
C     3.4039670    0.2593716   -1.0356174 
C    -0.4728908    0.4455009   -2.6545680 
C     0.9992052    0.5117387   -2.5956667 
C    -2.5597817    1.5582273   -1.8493565 
C    -2.9250334    2.2950143   -0.6294556 
C    -1.2237733    1.6646995   -2.3546103 
C    -1.7409670    3.4532941    1.1154259 
C    -0.4086163    4.0155242    1.1203527 
C    -2.1963221    3.3950698   -0.2485162 
C    -0.5211875    2.8809780   -1.9886068 
C    -0.0205720    4.2651239   -0.2117300 
C    -1.0927456    3.8126978   -1.0881324 
C     2.1769573    3.3288275    0.2542971 
C     3.0838493    2.3461179   -0.1535039 
C     2.9083281    1.5840056   -1.3353483 
C     1.6883328    1.7336977   -2.0999990 
C     1.2266760    3.7614232   -0.6924527 
C     0.9307171    2.8942481   -1.8267287 
