60 

C     0.8246841   -4.3235294    0.8148692 
C     1.7932443   -3.8777802   -0.1342461 
C     2.5628647   -2.8539432    0.4653825 
C     0.8442829   -3.3859998    1.9424815 
C     1.9148207   -2.5002106    1.7452644 
C    -0.4619930   -2.8098104    2.1090754 
C    -0.4454822   -4.1961016    0.2273883 
C    -1.3189847   -3.5068019    1.1486111 
C     1.0802520   -3.5080216   -1.3700999 
C    -0.3335729   -3.6982207   -1.1466119 
C     1.4892208   -2.3825034   -2.0731387 
C     3.1469489   -1.8222403   -0.3237924 
C     2.6639191   -1.6339559   -1.6650585 
C     3.5454889   -0.6719108    0.4053397 
C     1.7873818   -1.1206485    2.1298160 
C     2.8038642   -0.2964938    1.6330529 
C    -0.6871840   -1.4089010    2.3771380 
C     0.4695729   -0.5341641    2.4712436 
C    -2.0094175   -0.8520173    2.0546013 
C    -2.3923855   -2.8578171    0.6299391 
C    -2.9126300   -1.6769127    1.2860122 
C    -1.2975056   -2.7679778   -1.6207102 
C    -2.4972093   -2.6570365   -0.8312413 
C     0.5189879   -1.4223104   -2.5812704 
C    -0.8695494   -1.5533545   -2.3493563 
C     2.5114731   -0.2966968   -2.1696291 
C     1.1512209   -0.1343804   -2.6568548 
C     3.7597101    0.5326121   -0.2710796 
C     3.1442982    0.7760792   -1.5374944 
C     2.6886580    1.1354880    1.7016404 
C     3.3928651    1.6542717    0.5866583 
C     0.3062342    0.9126349    2.4485817 
C     1.4668666    1.7557374    2.1469330 
C    -2.1800960    0.5941441    1.9996110 
C    -1.0396798    1.4805463    2.2844132 
C    -3.2266343    1.1164162    1.1516269 
C    -3.7714273   -1.0860288    0.3267771 
C    -3.3408161   -1.5771202   -1.0139392 
C    -3.9280161    0.2689608    0.2604455 
C    -1.6626380   -0.3203454   -2.3365217 
C    -2.9991475   -0.4229334   -1.7939249 
C    -3.5706057    0.7010623   -1.1233357 
C     0.4348045    1.0800010   -2.4977753 
C    -1.0143985    0.9970196   -2.3573493 
C     2.5021188    2.0825901   -1.4978664 
C     2.8257586    2.6748943   -0.1994910 
C     1.1821209    2.2625571   -2.0065735 
C     1.2860851    3.0984476    1.6868006 
C     1.9289106    3.5256631    0.4376327 
C    -1.1613784    2.8695154    1.9236343 
C    -0.0171634    3.6793677    1.6906619 
C    -2.9607175    2.3117177    0.3807877 
C    -2.9377924    1.9234813   -1.0456605 
C    -1.7106978    2.1653573   -1.7839560 
C    -2.0918134    3.2378445    0.8419765 
C     0.4485201    3.3883601   -1.4919107 
C     0.9286320    4.1435450   -0.3694290 
C    -0.1942128    4.4585092    0.4704980 
C    -1.0025257    3.3207291   -1.3862911 
C    -1.3681352    4.0086155   -0.1442857 
