60 

C    -1.2770914    4.6900471    0.7125662 
C    -0.3145490    4.9342862   -0.2554942 
C    -0.6296694    4.2151559   -1.4950979 
C    -2.1892191    3.7233364    0.1218909 
C    -1.8283127    3.4483468   -1.2719235 
C    -2.2583833    2.6228408    0.9968472 
C    -0.6052446    4.0325203    1.8467764 
C    -1.2427892    2.7975660    2.0764221 
C     0.9947302    4.5012288    0.2065187 
C     0.8267751    3.9921609    1.5534846 
C     0.5509551    3.5420406   -1.8960198 
C     1.5670226    3.6712847   -0.7982146 
C     0.4309829    2.3115972   -2.5329906 
C    -1.9064402    2.1111444   -1.7534850 
C    -0.8443841    1.6367437   -2.5985825 
C    -2.5104566    1.3292336    0.5128362 
C    -2.4796966    1.0772137   -0.9137581 
C    -2.2494198    0.2279008    1.4343938 
C    -0.5205391    1.6289659    2.5235782 
C    -1.1008072    0.3161883    2.3305383 
C     1.5398934    2.8482096    1.8918421 
C     0.8933523    1.7314924    2.5749424 
C     2.3540038    2.5320643   -0.4535511 
C     2.4555099    2.2369700    0.9517007 
C     1.4594831    1.2969857   -2.4280211 
C     2.4353826    1.3889509   -1.3889765 
C    -0.5727069    0.2400065   -2.7692598 
C     0.8668793    0.0349234   -2.7506944 
C    -2.4246761   -0.3022040   -1.3251623 
C    -1.4203266   -0.7738336   -2.2889057 
C    -2.6987465   -1.0116868    1.0338962 
C    -2.9098549   -1.2463532   -0.3953066 
C    -2.2225921   -2.2439206    1.6163706 
C    -0.3265047   -0.8954581    2.5062397 
C    -0.9352867   -2.2066370    2.2551282 
C     1.6733417    0.5488750    2.3776285 
C     2.6746204    0.8848620    1.3849828 
C     1.1252208   -0.7510561    2.4259413 
C     2.9500518    0.1503794   -0.9345196 
C     3.0939053   -0.0956417    0.4976386 
C     1.4015475   -1.2066712   -2.3390975 
C     2.5535006   -1.1065657   -1.4940021 
C    -0.9288974   -2.1516713   -2.2446634 
C     0.5240727   -2.3813235   -2.2611483 
C    -2.7110856   -2.6119176   -0.6128591 
C    -2.5112130   -3.2859362    0.6627663 
C    -1.7550600   -3.1177895   -1.5721425 
C    -1.6501387   -4.3562464    0.4498839 
C    -1.2069980   -4.3023239   -0.9935877 
C    -0.0696629   -3.3481295    2.0441615 
C    -0.4886840   -4.4825026    1.2325312 
C     1.9019313   -1.8293579    1.8132026 
C     2.8499260   -1.4658899    0.7877851 
C     2.7409005   -2.1366747   -0.4947570 
C     1.3192286   -3.1086084    1.7259601 
C     1.0432576   -3.5426159   -1.6000683 
C     0.1684810   -4.5389127   -1.0234930 
C     0.6130972   -4.8544173    0.3431544 
C     2.1051958   -3.3459857   -0.6167060 
C     1.6761875   -4.0031903    0.6108794 
