60 

C     1.6727784   -3.9036529    1.1721895 
C     1.7747610   -3.8316354   -0.2849462 
C     2.5884494   -2.7283765   -0.6266084 
C     2.2908460   -2.7625036    1.7213559 
C     2.9342310   -2.0671763    0.6476363 
C     1.2541257   -2.0051773    2.4274302 
C     0.2867504   -3.8882965    1.4848923 
C     0.0038179   -2.7340322    2.3074329 
C     0.4607960   -3.9788499   -0.8577654 
C    -0.4800565   -4.1089789    0.2822880 
C     0.0903575   -3.1521520   -1.9298649 
C     2.2342514   -1.8916842   -1.7380732 
C     0.9843438   -2.1166703   -2.3955105 
C     2.7127170   -0.5622197   -1.7235504 
C     3.0939801   -0.6746474    0.7135498 
C     3.2958303    0.0074000   -0.5241507 
C     1.2576556   -0.6017606    2.4500799 
C     2.3995429    0.0672919    1.7809784 
C    -0.0028021    0.1176960    2.6068550 
C    -1.2260153   -2.0437862    2.1867615 
C    -1.2589748   -0.5991096    2.4284337 
C    -1.7266412   -3.5317749    0.2098151 
C    -2.1889026   -2.6356940    1.2770235 
C    -1.2716322   -2.6454230   -2.0473488 
C    -2.2152453   -2.9548485   -1.0586129 
C     0.1772791   -0.9861424   -2.7993760 
C    -1.2141303   -1.2976852   -2.5779359 
C     2.0223698    0.5180537   -2.3740884 
C     0.6597760    0.3530333   -2.7651820 
C     3.2316563    1.4288577   -0.5997865 
C     2.4762952    1.7647447   -1.7963054 
C     2.4206654    1.4498123    1.7174737 
C     2.9976040    2.1607118    0.5793277 
C     0.0337460    1.5839424    2.5278763 
C     1.2915590    2.2457993    2.2071253 
C    -1.1491045    2.3085306    2.2548059 
C    -2.4238131    0.1621708    1.9806988 
C    -2.3591647    1.5779393    1.9214019 
C    -3.1731927   -1.8134628    0.7089636 
C    -3.1855613   -1.9848053   -0.7473439 
C    -3.3223022   -0.4549792    1.0336797 
C    -2.1433365   -0.2751587   -2.2061096 
C    -3.1927162   -0.6862570   -1.3089568 
C    -3.5624892    0.2227297   -0.2335491 
C    -0.2924314    1.4572968   -2.5520922 
C    -1.6980128    1.1309767   -2.2086326 
C     1.6450281    2.8767967   -1.8130218 
C     0.2363775    2.7181289   -2.1789702 
C     2.3334908    3.4109372    0.4864568 
C     1.3179511    3.4986815    1.5636994 
C     1.7119841    3.8005133   -0.7044038 
C    -1.1083452    3.5369562    1.4438289 
C    -0.5267931    3.6407645   -1.3347420 
C     0.1251585    4.0689360    1.0271696 
C     0.3554777    4.2332831   -0.3933535 
C    -2.9700587    2.2760735    0.8351432 
C    -3.2933428    1.5598168   -0.3494167 
C    -2.4261133    2.0662227   -1.4214630 
C    -2.1425061    3.3974608    0.4833755 
C    -1.8179688    3.2753821   -0.9165876 
