60 

C     1.9208812   -3.4795383    1.0529523 
C     0.8133820   -3.5537158    1.8917546 
C     0.8415234   -2.3746623    2.7718631 
C     2.6915117   -2.2929542    1.4265677 
C     1.9845310   -1.5716516    2.4474589 
C     3.0298702   -1.6019354    0.2614286 
C     1.7449510   -3.4597876   -0.3859461 
C     2.4358341   -2.3050502   -0.8910938 
C     0.5012493   -3.7878663   -0.9258428 
C    -0.5030344   -3.7091751    1.3604663 
C    -0.6348196   -4.0317792   -0.0168495 
C    -0.4432223   -1.8168196    2.7508011 
C    -1.3258609   -2.6385376    1.9157783 
C    -0.6040843   -0.4103988    2.8499358 
C     1.8579867   -0.1530758    2.3832640 
C     0.6040843    0.4103988    2.8499358 
C     3.1554771   -0.1812365    0.2771485 
C     2.6273562    0.5932123    1.3825949 
C     3.1816615    0.4035563   -1.0261965 
C     1.9040144   -1.5354427   -1.9658468 
C     2.4093713   -0.2276728   -2.0908739 
C    -0.0212918   -3.0538420   -2.0897329 
C     0.5872616   -1.8341223   -2.5251268 
C    -1.8048214   -3.6089759   -0.6751232 
C    -1.4418870   -3.1512492   -2.0300297 
C    -2.3648523   -2.0264613    1.1730608 
C    -2.6930664   -2.6372643   -0.1041341 
C    -1.8579867    0.1530758    2.3832640 
C    -2.6273562   -0.5932123    1.3825949 
C    -1.9845310    1.5716516    2.4474589 
C     0.4432223    1.8168196    2.7508011 
C    -0.8415234    2.3746623    2.7718631 
C     2.3648523    2.0264613    1.1730608 
C     1.3258609    2.6385376    1.9157783 
C     3.0888506    1.7863488   -1.1832374 
C     2.6930664    2.6372643   -0.1041341 
C     1.6736332    0.8288136   -2.7693914 
C     2.2350384    2.0641781   -2.3489819 
C    -0.2638839   -0.6813699   -2.9166680 
C     0.2638839    0.6813699   -2.9166680 
C    -2.2350384   -2.0641781   -2.3489819 
C    -3.0888506   -1.7863488   -1.1832374 
C    -1.6736332   -0.8288136   -2.7693914 
C    -3.1554771    0.1812365    0.2771485 
C    -3.1816615   -0.4035563   -1.0261965 
C    -2.4093713    0.2276728   -2.0908739 
C    -2.6915117    2.2929542    1.4265677 
C    -3.0298702    1.6019354    0.2614286 
C    -0.8133820    3.5537158    1.8917546 
C     0.5030344    3.7091751    1.3604663 
C    -1.9208812    3.4795383    1.0529523 
C     1.8048214    3.6089759   -0.6751232 
C     1.4418870    3.1512492   -2.0300297 
C     0.6348196    4.0317792   -0.0168495 
C    -0.5872616    1.8341223   -2.5251268 
C    -1.9040144    1.5354427   -1.9658468 
C    -2.4358341    2.3050502   -0.8910938 
C    -1.7449510    3.4597876   -0.3859461 
C     0.0212918    3.0538420   -2.0897329 
C    -0.5012493    3.7878663   -0.9258428 
