60 

C     0.4594649   -0.5149766   -4.8405471 
C    -0.4594649    0.5149766   -4.8405471 
C     0.1247922    1.6527372   -4.1603814 
C     1.6315463   -0.0847290   -4.0347500 
C     1.4293286    1.2752676   -3.6187178 
C     1.8619119   -1.0525134   -3.0363781 
C    -0.1247922   -1.6527372   -4.1603814 
C     0.8479679   -2.1243603   -3.2489200 
C    -1.6315463    0.0847290   -4.0347500 
C    -1.4293286   -1.2752676   -3.6187178 
C    -0.8479679    2.1243603   -3.2489200 
C    -1.8619119    1.0525134   -3.0363781 
C    -0.4004621    2.7937319   -2.1464728 
C     1.7789328    1.6633327   -2.2842909 
C     0.9856806    2.7105643   -1.7354726 
C     2.2303932   -0.7095862   -1.6724426 
C     2.2853638    0.6850759   -1.2951012 
C     2.0416359   -1.7240456   -0.6296104 
C     0.4004621   -2.7937319   -2.1464728 
C     1.1860743   -2.8227195   -0.9399071 
C    -1.7789328   -1.6633327   -2.2842909 
C    -0.9856806   -2.7105643   -1.7354726 
C    -2.2303932    0.7095862   -1.6724426 
C    -2.2853638   -0.6850759   -1.2951012 
C    -1.1860743    2.8227195   -0.9399071 
C    -2.0416359    1.7240456   -0.6296104 
C     1.0277841    3.0350362   -0.3584330 
C    -0.3295290    3.3316595    0.0714792 
C     2.3636794    1.0427464    0.1280225 
C     1.8838341    2.3643189    0.5559803 
C     2.2311311   -1.3831577    0.7839956 
C     2.4750083    0.0074850    1.1481288 
C     1.7123697   -2.2704147    1.7809754 
C     0.3295290   -3.3316595    0.0714792 
C    -1.0277841   -3.0350362   -0.3584330 
C     0.6785749   -3.2220121    1.4038790 
C    -2.3636794   -1.0427464    0.1280225 
C    -1.8838341   -2.3643189    0.5559803 
C    -2.2311311    1.3831577    0.7839956 
C    -2.4750083   -0.0074850    1.1481288 
C    -0.6785749    3.2220121    1.4038790 
C    -1.7123697    2.2704147    1.7809754 
C     1.6301544    2.6456283    1.9371079 
C     0.3634932    3.1924309    2.3511260 
C     2.3080889    0.3681587    2.5461921 
C     1.9788035    1.6786508    2.9259157 
C     1.3884389   -1.8446981    3.1342101 
C     1.6586204   -0.5416396    3.5150900 
C    -0.3634932   -3.1924309    2.3511260 
C    -1.6301544   -2.6456283    1.9371079 
C     0.1096569   -2.4251718    3.5012035 
C    -2.3080889   -0.3681587    2.5461921 
C    -1.9788035   -1.6786508    2.9259157 
C    -0.9191344   -1.5993451    3.9484239 
C    -1.3884389    1.8446981    3.1342101 
C    -0.1096569    2.4251718    3.5012035 
C     0.9191344    1.5993451    3.9484239 
C     0.6741204    0.2313683    4.2696952 
C    -1.6586204    0.5416396    3.5150900 
C    -0.6741204   -0.2313683    4.2696952 
