60 

C    -1.6357778   -4.4113144   -0.2115239 
C    -0.3684331   -4.5370793   -0.8680776 
C     0.6357433   -4.6751880    0.1447261 
C    -1.3329873   -4.0481983    1.1876677 
C     0.0197843   -4.2522092    1.4432725 
C    -1.9068229   -2.7554880    1.4780118 
C    -2.3015705   -3.3033118   -0.7679153 
C    -2.6351656   -2.3842813    0.2830507 
C    -0.2384444   -3.4471242   -1.8361730 
C    -1.4887089   -2.7172701   -1.8288786 
C     0.9684741   -2.6875687   -1.9612789 
C     1.8108096   -3.9731498    0.0076608 
C     2.0538225   -3.0662314   -1.0805408 
C     0.8244835   -3.1898800    1.9951744 
C     2.0423555   -3.1861635    1.2506015 
C    -1.1735335   -1.7093881    2.1241145 
C     0.2594464   -1.8976905    2.3440802 
C    -1.7182614   -0.3640129    2.0186567 
C    -2.8940449   -1.0532471   -0.0242062 
C    -2.8007585   -0.1130087    1.0663427 
C    -1.5734839   -1.3275439   -2.0864807 
C    -2.5914650   -0.5865389   -1.3580642 
C     0.8739541   -1.2697645   -2.3972387 
C    -0.4026953   -0.5816682   -2.5114197 
C     2.0024956   -0.4330225   -2.1799440 
C     2.8536091   -2.0047297   -0.5234708 
C     2.7183986   -2.0182650    0.9405521 
C     2.9485053   -0.8005158   -1.1607151 
C     1.1083245   -0.7156742    2.2812618 
C     2.3740801   -0.7882959    1.5727758 
C    -0.9387417    0.7712669    2.4380154 
C     0.5182714    0.6063621    2.5095309 
C    -1.4785840    2.1015130    2.2450089 
C    -3.2252419    1.1980776    0.7979822 
C    -2.6692003    2.2897468    1.5141257 
C    -2.7115718    0.7905005   -1.5783413 
C    -3.2863260    1.6126225   -0.5832617 
C    -0.4520277    0.8999320   -2.5630118 
C    -1.6651401    1.5491588   -2.2392359 
C     1.9722705    1.0109076   -2.2083519 
C     0.7693774    1.7129461   -2.4520004 
C     3.2736689    0.3902577   -0.4055706 
C     2.9386344    0.4110790    0.9844087 
C     2.9304074    1.5105446   -1.2256022 
C     1.3235920    1.7568967    2.3305977 
C     2.5469451    1.6618790    1.5354752 
C    -0.6063130    3.2567563    1.9920744 
C     0.7685827    3.0881529    2.0978153 
C    -2.4411220    3.4121579    0.5878152 
C    -2.7550516    2.9592869   -0.6981151 
C    -1.7345027    2.9285692   -1.7210655 
C    -1.1753256    4.0098938    0.8733887 
C     0.6970321    3.0818744   -1.9700822 
C    -0.5726476    3.6530802   -1.5144268 
C    -0.3325982    4.3273096   -0.2248105 
C     2.7628369    2.7737823   -0.6480944 
C     2.6925147    2.8517903    0.7902665 
C     1.6229130    3.7720278    1.1579510 
C     1.7215092    3.6071313   -1.1478865 
C     1.0737049    4.3023203   -0.0166209 
