60 

C    -0.4069017    4.8483955   -0.5894315 
C    -1.5001589    4.2015099    0.0628946 
C    -1.1644458    3.8842578    1.4083056 
C     0.7357308    4.7219902    0.3059463 
C     0.2828670    4.1254352    1.5317463 
C     1.7675843    4.0359975   -0.3903564 
C    -0.1145129    4.0419593   -1.7543411 
C     1.2355954    3.6524439   -1.7243541 
C    -1.9888028    3.1011774   -0.7636829 
C    -1.0881754    2.9621798   -1.8854011 
C    -2.5210375    1.9388407   -0.1849769 
C    -1.4579387    2.6019752    1.9199483 
C    -2.2945025    1.6802472    1.2256362 
C     0.8608983    2.9345268    2.0422143 
C    -0.2288135    2.0285995    2.4275444 
C     2.3978202    2.8859841    0.1386819 
C     1.9887271    2.3138155    1.3965864 
C     1.6187381    2.3169055   -2.0088230 
C     2.4985974    1.9124802   -0.9521735 
C    -0.7204043    1.6461079   -2.3384046 
C     0.6828989    1.3169347   -2.4584861 
C    -2.6395023    0.7878256   -1.0561364 
C    -1.6522639    0.5707252   -2.0865557 
C    -3.3109200   -0.3094439   -0.5062722 
C    -2.3098221    0.3086362    1.6812478 
C    -3.1643021   -0.5674722    0.9512459 
C    -0.0518752    0.6439601    2.5909101 
C    -1.1986822   -0.2472670    2.4068543 
C     2.2202072    0.9036056    1.6248908 
C     1.2856380    0.1264731    2.4254182 
C     2.8039058    0.5762318   -0.7286660 
C     2.9773390    0.1413411    0.6483390 
C     1.0992318   -0.0663172   -2.4006976 
C     2.3279373   -0.3880816   -1.6992494 
C    -1.3012343   -0.8025868   -2.4170005 
C     0.1086930   -1.1244872   -2.5751984 
C    -3.2928361   -1.5616531   -1.1451086 
C    -2.2044170   -1.8508989   -2.0214221 
C    -3.1580575   -1.9595822    1.1428258 
C    -3.4027607   -2.6087994   -0.1222670 
C    -1.0129801   -1.6993448    2.3881669 
C    -1.9760325   -2.5491671    1.7455505 
C     1.4552321   -1.2855360    2.5227615 
C     0.3089612   -2.2045761    2.4598338 
C     3.2314689   -1.2352920    0.8703105 
C     2.5527240   -1.9155111    1.9368679 
C     2.6933888   -1.7488926   -1.4737923 
C     3.2612889   -2.1343665   -0.2307113 
C     0.5234398   -2.4900524   -2.3557765 
C     1.8143430   -2.7884137   -1.9101912 
C    -1.6965940   -3.1585010   -1.5809351 
C    -2.3741121   -3.5210270   -0.3318016 
C    -1.5320209   -3.6044966    0.8639639 
C    -0.3720156   -3.4517862   -1.7065415 
C     0.7216953   -3.3985970    1.7447223 
C     2.1243571   -3.2448224    1.4708674 
C     2.6113568   -3.4196079    0.1794136 
C     1.7292186   -3.8175785   -0.8533545 
C    -0.1597767   -3.9524556    0.7462373 
C     0.3760154   -4.1039480   -0.6078226 
