60 

C    -1.8026602   -3.9477457   -0.5122831 
C    -0.3872561   -4.1048385   -0.5024575 
C     0.1337231   -3.7526947    0.7888168 
C    -2.1614553   -3.3260600    0.7327398 
C    -0.9850096   -3.1699653    1.5404772 
C    -2.9289865   -2.1522772    0.4756130 
C    -2.1123868   -2.9911182   -1.5300045 
C    -2.9112678   -1.9471847   -0.9737584 
C     0.1715505   -3.4194068   -1.6460010 
C    -0.9004172   -2.6141571   -2.2317453 
C     1.4412549   -2.8830467   -1.5473932 
C     1.4474906   -3.2208701    0.9133870 
C     2.1815559   -2.9209583   -0.2886665 
C     1.6792399   -2.3598485    2.0401484 
C    -0.7891018   -1.9743189    2.3109160 
C     0.5462191   -1.6713039    2.6661951 
C    -2.8603845   -1.0184713    1.3215991 
C    -1.7546879   -0.8706896    2.2565753 
C    -3.4525785    0.1501556    0.7565693 
C    -2.8455769   -0.6392857   -1.5128720 
C    -3.4191824    0.3636291   -0.6941880 
C    -0.6675115   -1.2662547   -2.6281736 
C    -1.7444058   -0.2886082   -2.4154083 
C     1.7513939   -1.6453508   -2.2082903 
C     0.7208617   -0.7949543   -2.7187003 
C     3.1464683   -1.8518876   -0.3249258 
C     2.9219314   -1.0962724   -1.5483742 
C     2.7639648   -1.4663384    2.0392740 
C     3.4825763   -1.1501543    0.8524626 
C     0.9623191   -0.3156545    2.9695850 
C     2.3353132   -0.2064518    2.6404777 
C    -1.3339835    0.4861999    2.6136023 
C     0.0918645    0.7877558    2.7995775 
C    -3.2946168    1.3881454    1.3791518 
C    -2.1909065    1.5812776    2.2805963 
C    -3.1928474    1.7687445   -0.9204843 
C    -3.2536765    2.4363879    0.3573071 
C    -1.4430087    1.0861726   -2.5374430 
C    -2.1865878    2.1272000   -1.8315290 
C     1.0067454    0.6344571   -2.7947136 
C    -0.0885390    1.5477468   -2.7461595 
C     3.1906077    0.2568356   -1.6147970 
C     2.2836277    1.1263347   -2.3390135 
C     3.6362383    0.3055224    0.8112585 
C     2.8475216    0.8803829    1.9088362 
C     3.6408837    0.9686052   -0.4116680 
C     0.6778480    2.0387080    2.2948408 
C     2.0309142    2.0487126    1.7387698 
C    -1.6196561    2.8561136    1.9498867 
C    -2.2659654    3.3400447    0.7189648 
C    -0.2354475    3.0374719    1.8212474 
C    -1.2438181    3.1833955   -1.4959732 
C     0.0228752    2.8532289   -2.1209969 
C    -1.2414531    3.7418179   -0.1993113 
C     0.0139395    3.7424516    0.5541146 
C     2.3578661    2.4064107   -1.7204546 
C     3.0927979    2.2790139   -0.4746507 
C     2.2914203    2.8388600    0.5596679 
C     1.2258329    3.2280208   -1.5145599 
C     1.2165292    3.5763650   -0.0876613 
