60 

C    -1.8988083    4.0048325   -0.4047582 
C    -0.5882724    4.2998456    0.0947213 
C     0.3792938    3.9316134   -0.9053296 
C    -1.7228191    3.2341095   -1.6369779 
C    -0.3281417    3.1255072   -1.9203869 
C    -2.5255101    2.0676884   -1.5863869 
C    -2.5255161    3.1365608    0.5006032 
C    -3.0388164    2.0003981   -0.2193524 
C    -0.4506551    3.7477013    1.4221986 
C    -1.6103442    2.8989262    1.6341196 
C     0.8136793    3.2906022    1.8160724 
C     1.6417456    3.5246645   -0.4889217 
C     1.9088954    3.4250090    0.9167896 
C     2.3104108    2.4016619   -1.1476059 
C     0.2218542    1.8855989   -2.3923781 
C     1.6275812    1.5608288   -2.0680492 
C    -2.0830017    0.8776227   -2.2129237 
C    -0.7057328    0.8023503   -2.6919439 
C    -2.7177667   -0.3142814   -1.7572588 
C    -3.1547654    0.7652434    0.4224339 
C    -3.2921266   -0.3689702   -0.4349041 
C    -1.4693695    1.5894435    2.1401708 
C    -2.4495283    0.5759700    1.7012093 
C     0.9599150    1.9825972    2.4463221 
C    -0.1378684    1.1198937    2.5955807 
C     2.8072355    2.3137046    1.1144071 
C     3.1887451    1.7935112   -0.1566945 
C     2.2552419    1.4189082    2.0733616 
C     3.5530657    0.4673936   -0.2362705 
C     2.1214486    0.1791336   -2.2351940 
C     3.1961722   -0.3029898   -1.4069559 
C    -0.1767504   -0.5066906   -2.9044575 
C     1.2160149   -0.8084147   -2.7214849 
C    -2.1997062   -1.6198749   -2.0447148 
C    -0.9482864   -1.7080119   -2.6618605 
C    -3.1865869   -1.7068837    0.0595581 
C    -2.5639417   -2.5326356   -0.9754778 
C    -2.2710338   -0.7280146    2.1299600 
C    -2.8163482   -1.8876016    1.4069209 
C     0.1361875   -0.3177546    2.7307613 
C    -1.0091342   -1.1621695    2.7557794 
C     2.4758318    0.0162470    1.9520959 
C     3.3865517   -0.3985486    0.9203450 
C     1.4251375   -0.9019307    2.3897274 
C     3.2569832   -1.6730547   -1.0270083 
C     3.3173312   -1.7195358    0.4149196 
C     1.3164852   -2.2203342   -2.3501576 
C    -0.0309886   -2.7611568   -2.2716454 
C     2.2962277   -2.6321120   -1.4434929 
C    -1.6939200   -3.5740619   -0.6225452 
C    -0.3836735   -3.6703308   -1.2732966 
C    -2.0330165   -3.0205362    1.7559998 
C    -0.8939463   -2.5418779    2.5539176 
C    -1.5039882   -3.8673328    0.7769937 
C     1.4852616   -2.3102021    1.9673733 
C     2.3861367   -2.6668213    0.8956939 
C     1.8704341   -3.3891517   -0.2660169 
C     0.6062308   -3.9761760   -0.2245402 
C     0.3200817   -3.1293331    2.0827243 
C    -0.0698162   -4.0207780    1.0182304 
