60 

C     0.5081983   -3.7540980    1.4436862 
C     1.7682693   -3.2067843    1.6138950 
C     2.4373712   -3.1548368    0.2952587 
C     0.3317540   -4.0588295    0.0133909 
C     1.4995870   -3.6146957   -0.6887167 
C    -0.9702707   -3.6760859   -0.3669867 
C    -0.6537219   -3.0622644    1.8968385 
C    -1.6562850   -3.2313811    0.8530374 
C    -0.5416604   -1.8073660    2.5831637 
C     1.9351576   -1.9584380    2.2668871 
C     0.8004244   -1.2479790    2.7951607 
C     3.0719954   -1.9089573    0.1877134 
C     2.9164849   -1.2309927    1.4796947 
C     2.9811374   -1.1213852   -1.0249199 
C     1.3173313   -2.8161868   -1.8399791 
C     2.1355506   -1.6395283   -2.0427389 
C    -1.1757315   -2.9394037   -1.6012270 
C    -0.0169816   -2.5138613   -2.3116877 
C    -2.3246555   -2.0847314   -1.6858435 
C    -2.7018494   -2.3399769    0.7489834 
C    -3.1454166   -1.9369971   -0.5596226 
C    -1.6888469   -0.8811373    2.4750039 
C    -2.7608672   -1.1711153    1.5940005 
C    -1.5089098    0.4964778    2.8086978 
C     0.9536709    0.1972099    2.9693537 
C    -0.2228796    1.0028048    3.1406172 
C     2.9735244    0.1363097    1.5365263 
C     2.0892939    0.8627842    2.4132085 
C     3.1634776    0.3410043   -0.9383091 
C     3.2398318    0.9377678    0.3527271 
C     2.6437518    1.1728084   -1.9912633 
C     1.3605758   -0.7234355   -2.8653143 
C     0.0101955   -1.2005817   -2.9407423 
C     1.6248653    0.6308262   -2.8695856 
C    -2.2930682   -0.7636579   -2.3494719 
C    -1.0982611   -0.2812399   -2.9299845 
C    -3.6487173   -0.5787731   -0.4899575 
C    -3.3920226   -0.0923785    0.8039060 
C    -3.1746406    0.1372471   -1.6286060 
C    -2.2626707    1.5763542    2.1474603 
C    -3.0454487    1.2901558    0.9943387 
C    -0.2107795    2.4076942    2.7960093 
C    -1.4687293    2.7499158    2.1810021 
C     2.0071285    2.2126983    1.8835660 
C     2.7016012    2.2534376    0.6220963 
C     0.8440001    2.9854607    2.0673149 
C     2.2473741    2.5078196   -1.7256467 
C     2.1963574    3.0543377   -0.4298425 
C     0.5363000    1.5991087   -3.0323231 
C    -0.8253553    1.1691072   -2.9249278 
C     0.9655493    2.7803767   -2.3913908 
C    -2.8247556    1.4815558   -1.4761452 
C    -2.8802546    2.1131671   -0.1710817 
C    -1.7147606    2.0355310   -2.2086285 
C    -1.2078777    3.5069875    0.9996531 
C     0.2477441    3.7236031    0.9375550 
C     0.9028994    3.7483442   -0.2799945 
C     0.1392676    3.5218786   -1.5153980 
C    -1.9162458    3.1960675   -0.1758736 
C    -1.2190061    3.1682573   -1.4445372 
