60 

C    -0.1830714    4.4067436    0.0576324 
C    -1.1950057    3.9677141    0.9317288 
C    -2.2541707    3.3759790    0.1270738 
C    -0.5292932    3.9772527   -1.3221590 
C    -1.7936346    3.3439526   -1.2492737 
C     0.6055782    3.2869137   -1.8613022 
C     1.1568701    4.0715763    0.2919368 
C     1.6914899    3.4912271   -0.9507993 
C     1.5200526    3.2024558    1.3600635 
C    -0.8790083    3.0521229    1.9918738 
C     0.4916265    2.6808016    2.2411485 
C    -2.6909982    2.1912431    0.7521022 
C    -1.8925454    2.0023542    1.9571412 
C    -3.0752484    1.0387583   -0.0118299 
C    -1.9781933    2.1454055   -1.9595872 
C    -2.7921532    1.0952332   -1.4147685 
C     0.4623879    1.9772556   -2.4968805 
C    -0.8670182    1.5065512   -2.6655638 
C     1.5115593    0.9717234   -2.3787765 
C     2.5233626    2.4246430   -0.6211996 
C     2.5124698    2.2785824    0.8367250 
C     2.5999031    1.2566966   -1.4441527 
C     2.7508189    1.0048621    1.4168084 
C     0.7045502    1.3710006    2.7777937 
C     1.8782719    0.5707845    2.4604777 
C    -1.6662007    0.7059837    2.4618132 
C    -0.3699318    0.4658292    3.0216049 
C    -3.1213171   -0.2620637    0.6441548 
C    -2.4310333   -0.4320166    1.9288443 
C    -3.2492806   -1.4076409   -0.2045682 
C    -2.4227223   -0.1168235   -2.1016682 
C    -1.1599047    0.1036148   -2.7784421 
C    -2.7437178   -1.3318470   -1.5698163 
C     1.2255108   -0.4368512   -2.6986253 
C    -0.1620276   -0.8962124   -2.8073196 
C     2.2057875   -1.4177226   -2.3500217 
C     3.3171534    0.1824241   -0.8651285 
C     3.3250631    0.0023942    0.6000234 
C     3.2663353   -1.0794417   -1.4501499 
C     3.1478242   -1.4005172    0.8698681 
C     3.2931630   -2.0848585   -0.3809536 
C     1.5697833   -0.8233896    2.6241393 
C     0.1848065   -0.8719060    3.0370665 
C     2.1385272   -1.8453621    1.8037365 
C    -1.9888393   -1.7380576    2.2949423 
C    -0.6062691   -1.9454998    2.7352602 
C    -2.9041625   -2.7062554    0.2510601 
C    -2.2991031   -2.8724626    1.4971947 
C    -1.8695926   -2.4712754   -1.8186816 
C    -0.5607153   -2.2579486   -2.3811614 
C    -2.0781789   -3.3877513   -0.7564360 
C     1.8063939   -2.7576759   -1.9996095 
C     2.4588476   -3.1251187   -0.7352847 
C     0.4608615   -3.1486475   -1.9173638 
C     1.3009721   -3.0194717    1.4592413 
C    -0.0303773   -3.0917536    2.0189783 
C    -1.0925776   -3.6962560    1.3189804 
C    -0.9718355   -4.0038537   -0.0804258 
C     1.4588802   -3.6230326    0.1599408 
C     0.2892771   -3.9003657   -0.6574058 
