60 

C    -0.6707967   -4.6677156    0.1354883 
C     0.6533374   -4.5192395   -0.4471438 
C     1.5244219   -4.0842600    0.5721659 
C    -0.6343914   -4.1202304    1.4830528 
C     0.6927526   -3.7861246    1.7743869 
C    -1.6179979   -3.0580172    1.5921449 
C    -1.5381315   -3.8397052   -0.5990341 
C    -2.2471205   -2.9453897    0.3004813 
C     0.5346748   -3.6980973   -1.6397578 
C    -0.8592081   -3.2443294   -1.7349102 
C     1.5198766   -2.7534125   -1.9103775 
C     2.3895606   -2.9772168    0.3775843 
C     2.5292316   -2.4212565   -0.9069219 
C     1.0501518   -2.4825801    2.2422673 
C     2.1863159   -2.0257472    1.4692269 
C    -1.3344969   -1.8523286    2.3068526 
C     0.0552712   -1.5235765    2.6417853 
C    -2.1999984   -0.7704489    2.0154133 
C    -2.7352097   -1.7176996   -0.1834783 
C    -2.9642584   -0.7324153    0.8102542 
C    -1.2021958   -1.9412397   -2.1778999 
C    -2.3403944   -1.2613414   -1.5281147 
C     1.1823084   -1.5221877   -2.5911980 
C    -0.1646150   -1.0959343   -2.7813896 
C     2.8514820   -1.0332841   -1.0479649 
C     2.1745180   -0.5452912   -2.2309396 
C     2.4633634   -0.6550879    1.3367295 
C     2.9525204   -0.1452988    0.0587617 
C     0.4541408   -0.1502798    2.7490676 
C     1.7593864    0.2476904    2.2377521 
C    -1.8654632    0.5942191    2.3430361 
C    -0.5693737    0.9096040    2.8209469 
C    -3.1938912    0.6506439    0.4707543 
C    -2.5883706    1.4977912    1.4643528 
C    -2.5989806    0.0725826   -1.8473927 
C    -3.1769219    1.0114382   -0.8761736 
C    -0.4060699    0.3248016   -3.0093184 
C    -1.6964628    0.8477691   -2.6991910 
C     1.9402959    0.8061907   -2.3981808 
C     0.6848596    1.2607317   -2.9302632 
C     2.9101533    1.2923780   -0.1889191 
C     2.4777612    1.7698219   -1.4693726 
C     2.0732847    1.6177231    2.1423474 
C     2.7000594    2.1479198    0.9267626 
C    -0.1883863    2.2754312    2.7397442 
C     1.1990820    2.6300691    2.6770823 
C    -2.0582628    2.7821406    1.1414662 
C    -0.9461206    3.2294327    1.9134291 
C    -2.7068484    2.3156889   -1.1941814 
C    -1.8428099    2.2142633   -2.3498419 
C    -2.1406947    3.2065518   -0.2483798 
C     0.5224803    2.6168084   -2.4604211 
C     1.6585379    2.9494179   -1.5807707 
C    -0.7465414    3.1053369   -2.1534965 
C    -0.9727222    3.8217514   -0.8873664 
C     2.1496782    3.4557111    0.7404844 
C     1.3126809    3.7885458    1.8596350 
C     0.0217178    4.1085656    1.3333275 
C     1.4734204    3.7969549   -0.4901483 
C     0.1094094    4.2217610   -0.1142361 
