60 

C    -2.6163493   -3.3618928   -1.0118369 
C    -1.5905146   -3.9125712   -0.1905986 
C    -1.6100885   -3.2913636    1.1228404 
C    -3.2270730   -2.3211802   -0.2719904 
C    -2.6550597   -2.2869375    1.0608904 
C    -3.1290483   -1.0903298   -1.0144841 
C    -1.9036758   -2.7137079   -2.1066617 
C    -2.2516706   -1.3385513   -2.1527225 
C    -0.3500486   -3.9463968   -0.9117874 
C    -0.5222849   -3.0668644   -2.0882006 
C     0.8373786   -3.8690010   -0.1998636 
C    -0.3741282   -3.0139800    1.7900288 
C     0.8522532   -3.4240211    1.1882559 
C    -0.3293554   -1.8122686    2.5908613 
C    -2.5309471   -1.0366531    1.7244515 
C    -1.4338136   -0.8975666    2.6186396 
C    -3.1465170    0.1655091   -0.3799902 
C    -3.0209736    0.1880883    1.0713563 
C    -2.7055652    1.2968358   -1.1815728 
C    -1.3093698   -0.3370100   -2.5167926 
C    -1.7105129    1.0270496   -2.2303549 
C     0.4753081   -2.0829597   -2.4066319 
C     0.0844611   -0.7045877   -2.6851506 
C     1.9738967   -3.2900627   -0.8514354 
C     1.7913885   -2.3253988   -1.8705473 
C     2.0702200   -2.6398751    1.3664696 
C     2.8047946   -2.6768046    0.1510458 
C     0.8765006   -1.0456917    2.7911321 
C     2.0957919   -1.4187453    2.1572949 
C    -0.9080595    0.4089555    2.9713554 
C     0.5216869    0.3477150    3.0005678 
C    -2.6788745    1.4328523    1.6461357 
C    -1.5389842    1.5543886    2.5631897 
C    -2.7128103    2.5819983   -0.5542588 
C    -2.6995567    2.6059740    0.8755694 
C    -1.8237072    3.6292124   -0.9829718 
C    -0.7655556    2.0366507   -2.5372449 
C    -0.8712450    3.3517443   -1.9500473 
C     1.0885406    0.3604530   -2.6039967 
C     0.6330395    1.6939696   -2.6314995 
C     2.7263923   -1.2172167   -1.6265705 
C     3.3923120   -1.4867243   -0.3659851 
C     2.4129157    0.0986843   -2.0197186 
C     2.9701763   -0.3614818    1.7859766 
C     3.6650841   -0.4302703    0.5134567 
C     1.3046840    1.4263135    2.5088201 
C     2.5921227    1.0506821    1.9913068 
C    -0.7733655    2.7435462    2.2090298 
C    -1.5964186    3.4907946    1.3036904 
C    -1.0812964    4.1338365    0.1944995 
C     0.6399450    2.6555255    2.0143716 
C     0.4466351    3.7538387   -1.4823501 
C     1.3648288    2.7871367   -1.9443172 
C     0.3325934    4.0557966   -0.0769394 
C     1.2090475    3.3816471    0.8523801 
C     3.0596089    1.1611643   -1.2667725 
C     3.6762293    0.8722610   -0.0321036 
C     3.1350715    1.8153108    0.9434441 
C     2.4402468    2.4687854   -1.1380166 
C     2.3937158    2.8233949    0.2763543 
