60 

C    -0.7162109    4.6261991    1.1732453 
C     0.6590778    4.7097655    0.8967754 
C     0.8745151    4.3809081   -0.4986291 
C    -1.3812441    4.2025075   -0.0426980 
C    -0.4024173    4.0268822   -1.0994204 
C    -2.2202653    3.0758243    0.2509997 
C    -0.8991590    3.5224574    2.0989696 
C    -1.9259187    2.6595759    1.6221918 
C     1.3437433    3.6637664    1.6525382 
C     0.3703753    2.9033857    2.4085869 
C     1.9501429    3.4394887   -0.5860507 
C     2.2131631    2.9508297    0.7860205 
C     1.9367795    2.5132171   -1.6194210 
C    -0.4991303    2.9069289   -1.9951783 
C     0.7269505    2.2994098   -2.4093301 
C    -2.5039435    2.0881792   -0.7223389 
C    -1.6678634    2.0033806   -1.9236366 
C    -3.0650509    0.8924811   -0.1988464 
C    -1.9224926    1.2864580    1.9576685 
C    -2.7871181    0.4968006    1.1624300 
C     0.4816623    1.4823867    2.5053521 
C    -0.7230856    0.6552542    2.5025487 
C     2.4619429    1.5799435    0.9981827 
C     1.6901644    0.8500458    2.0029558 
C     2.5777904    1.2427532   -1.4577225 
C     2.9383627    0.8164721   -0.1479203 
C     0.7934936    0.9480936   -2.8864617 
C     1.9559145    0.2813660   -2.3501033 
C    -1.6074717    0.7377221   -2.5644379 
C    -0.3582885    0.1905163   -3.0511705 
C    -3.1544082   -0.3193826   -0.9657764 
C    -2.4018016   -0.4008151   -2.1404320 
C    -2.7650649   -0.9198702    1.2420304 
C    -3.1465318   -1.4429619   -0.0593463 
C    -0.6252986   -0.7843871    2.5026041 
C    -1.7739682   -1.5832593    2.0249251 
C     1.8243409   -0.5777110    2.1001760 
C     0.6956609   -1.4037911    2.5299841 
C     3.1344065   -0.5507105    0.0223003 
C     2.8298070   -1.1902764    1.2660981 
C     1.9860150   -1.1151018   -2.1155703 
C     2.8617664   -1.5214210   -1.0513673 
C    -0.3392371   -1.2450330   -2.8715156 
C    -1.6597424   -1.6232177   -2.4320356 
C     0.8118907   -1.9526449   -2.4012771 
C    -2.6750937   -2.6885963   -0.4729653 
C    -1.8399074   -2.7727264   -1.6763614 
C    -1.6070513   -2.9812047    1.7427362 
C    -2.0989971   -3.5336512    0.4927552 
C     0.7841593   -2.8366476    2.3508462 
C    -0.3580491   -3.5928996    1.9989321 
C     2.8098950   -2.5882446    0.9984787 
C     2.7371279   -2.7793895   -0.4736994 
C     1.8749887   -3.4038687    1.5691036 
C     0.6235158   -3.2422749   -1.6954490 
C    -0.7258478   -3.6620252   -1.3934534 
C    -1.0306712   -4.2978555   -0.1265482 
C    -0.0266736   -4.4765409    0.8357726 
C     1.6620280   -3.6775303   -0.7683535 
C     1.2983236   -4.2689603    0.5023086 
