60 

C    -2.0539275   -3.9387444    0.2292678 
C    -0.6779882   -4.1678429    0.4896579 
C    -0.2549675   -3.4227918    1.6608992 
C    -2.4832497   -2.9599309    1.1513797 
C    -1.3978741   -2.6107495    2.0511693 
C    -3.0960042   -1.8703737    0.4554008 
C    -2.1114438   -3.2839080   -1.0839764 
C    -2.8019389   -2.0600240   -0.9773001 
C     0.0767966   -3.9719633   -0.7180137 
C    -0.8124596   -3.2540270   -1.6653066 
C     1.4151513   -3.6264203   -0.6368329 
C     1.0724624   -2.8966130    1.7177765 
C     1.9761391   -3.1337313    0.6219905 
C     1.2349737   -1.6625021    2.4202214 
C    -1.2315692   -1.2571628    2.4664616 
C     0.0902359   -0.8629783    2.8029837 
C    -3.0999182   -0.5764919    0.9881157 
C    -2.1579479   -0.1976573    2.0366348 
C    -3.4913746    0.4080595    0.0360089 
C    -2.4249825   -0.9180869   -1.7615836 
C    -3.0391238    0.2688960   -1.3585922 
C    -0.3219044   -2.0799083   -2.3542440 
C    -1.1217508   -0.8601148   -2.4146105 
C     1.9655659   -2.8375051   -1.6888697 
C     1.0942023   -1.9567605   -2.4348253 
C     2.9842039   -2.1580422    0.2847960 
C     3.0018648   -2.0387381   -1.1526861 
C     2.3481316   -0.7712601    2.1914687 
C     3.2143894   -0.9811695    1.0718697 
C     0.4894175    0.5119133    2.8384336 
C     1.9148567    0.5543485    2.5639593 
C    -1.7766685    1.1986006    2.1401902 
C    -0.3836566    1.5622373    2.4744139 
C    -3.4413160    1.7441267    0.3639285 
C    -2.5638193    2.1859990    1.4271464 
C    -2.6094728    1.5568512   -1.8100656 
C    -3.1046235    2.5099362   -0.8452602 
C    -0.4968474    0.4514010   -2.5920305 
C    -1.2764605    1.6748531   -2.3538989 
C     1.7163296   -0.6561391   -2.5318015 
C     2.9585034   -0.7413470   -1.7681625 
C     0.9672351    0.5386455   -2.5831473 
C     3.6817901    0.2032247    0.3817118 
C     3.4351741    0.3400524   -1.0729669 
C     2.4704336    1.6812861    1.9705791 
C     3.4157008    1.4691618    0.9124656 
C     0.2259904    2.7953541    1.9208759 
C     1.6121797    2.8003302    1.6234074 
C    -1.9853623    3.4110038    0.9882262 
C    -2.3257502    3.5762981   -0.4551570 
C    -0.6048671    3.6796128    1.1227529 
C    -0.5791638    2.9156022   -2.0636913 
C    -1.1403446    3.8677761   -1.1550804 
C    -0.1191628    4.1519989   -0.1586798 
C     1.6447561    1.7661135   -2.1010454 
C     2.8760835    1.6402098   -1.3423538 
C     3.0605305    2.4057521   -0.1536668 
C     2.0645156    3.2735637    0.3017603 
C     0.8615186    2.9009954   -1.8327739 
C     1.1168085    3.7087809   -0.6393306 
