60 

C    -1.2816814   -4.2059629   -0.5798300 
C     0.0305079   -4.2440459   -0.0351273 
C     0.0044379   -3.5950445    1.2647337 
C    -2.1469301   -3.5723253    0.3508397 
C    -1.3487582   -3.1469643    1.4931228 
C    -2.8868594   -2.5535652   -0.3456268 
C    -1.2236481   -3.3552837   -1.7514920 
C    -2.2210631   -2.3230599   -1.6284138 
C     0.9430902   -3.7075787   -1.0059531 
C     0.1385630   -3.0182378   -2.0258262 
C     2.0966369   -3.1281299   -0.5548861 
C     1.1191771   -2.8347770    1.7102828 
C     2.2985402   -2.9125618    0.8722472 
C     0.8665396   -1.5751255    2.4517825 
C    -1.6109696   -1.8904887    2.1218223 
C    -0.4893956   -1.0586678    2.5883676 
C    -3.3331711   -1.4669979    0.3571378 
C    -2.8237469   -1.2307256    1.7111804 
C    -3.4487587   -0.1759640   -0.2961358 
C    -1.9575762   -1.0059351   -2.0777886 
C    -2.7004429    0.1189944   -1.4771462 
C     0.4787413   -1.6963912   -2.4258031 
C    -0.6301110   -0.7575600   -2.6264259 
C     2.6512510   -1.9587649   -1.2434564 
C     1.8086980   -1.1665986   -2.0951551 
C     3.2982523   -1.9173381    0.9607222 
C     3.5378771   -1.3238051   -0.3603128 
C     1.9543137   -0.6348565    2.5467394 
C     3.1770584   -0.8618602    1.8536532 
C     1.7287328    0.7935864    2.5246851 
C    -0.6899021    0.4036121    2.7522026 
C     0.4449328    1.3322007    2.6466646 
C    -2.9879058    0.1366812    1.9487663 
C    -3.4610160    0.7926692    0.7369894 
C    -1.9667049    0.9587824    2.4707874 
C    -2.8966782    2.0761681    0.6182364 
C    -2.0944191    2.2768074    1.8120060 
C    -2.2775794    1.5037087   -1.7000031 
C    -2.4526756    2.5439820   -0.6655380 
C    -0.3030807    0.5682634   -2.8942250 
C    -1.1930960    1.6765603   -2.6136396 
C     2.0589191    0.2654523   -2.1398204 
C     1.0661205    1.0516254   -2.7789884 
C     3.5985905    0.1104523   -0.2233707 
C     3.5464220    0.3938399    1.1682853 
C     2.7074069    1.4101256    1.6301985 
C     2.8903056    0.9448029   -1.1417301 
C     2.3359785    2.4722290    0.7621701 
C     2.5072719    2.2833652   -0.6794836 
C     0.2834292    2.6746829    2.1524381 
C    -1.0298961    3.1485620    1.7512607 
C     1.2381908    3.2582943    1.2399066 
C    -1.5527363    3.6708191   -0.6207064 
C    -0.9001616    3.9893842    0.6053780 
C     0.5314782    4.1237381    0.3391377 
C    -0.3869922    2.8612352   -2.5984602 
C     1.0293986    2.4472347   -2.6201057 
C     1.6991945    3.0978120   -1.5538071 
C    -0.5472854    3.8520214   -1.6542009 
C     0.7731853    4.0809235   -1.0282862 
