60 

C     0.6254833   -4.2227032    0.0000000 
C    -0.0143459   -4.0045882   -1.2188853 
C     0.9018626   -3.2325345   -2.0452893 
C     1.9298894   -3.4665497    0.0000000 
C     2.0214450   -2.7828548   -1.2277623 
C     2.0214450   -2.7828548    1.2277623 
C    -0.0143459   -4.0045882    1.2188853 
C     0.9018626   -3.2325345    2.0452893 
C    -1.2896738   -3.3311453    1.2474784 
C    -1.2896738   -3.3311453   -1.2474784 
C    -1.9313586   -2.9496563    0.0000000 
C     0.1699820   -2.2927583   -2.7688003 
C    -1.2132351   -2.3571050   -2.3128947 
C     0.7734422   -1.0587088   -3.1489939 
C     2.4105298   -1.4016620   -1.2664062 
C     1.9663133   -0.6179724   -2.4189338 
C     2.4105298   -1.4016620    1.2664062 
C     2.6892414   -0.7275125    0.0000000 
C     1.9663133   -0.6179724    2.4189338 
C     0.1699820   -2.2927583    2.7688003 
C    -1.2132351   -2.3571050    2.3128947 
C     0.7734422   -1.0587088    3.1489939 
C    -1.9863471   -1.1573454    2.3065108 
C    -2.6837353   -1.7172610    0.0000000 
C    -2.7833720   -0.8695324    1.1577491 
C    -1.9863471   -1.1573454   -2.3065108 
C    -2.7833720   -0.8695324   -1.1577491 
C    -0.1477120   -0.0760099   -3.6088427 
C    -1.4945324   -0.0675449   -3.0672579 
C     0.2476735    1.2813438   -3.7315929 
C     2.2406625    0.7847609   -2.4219899 
C     1.4513824    1.7036414   -3.2089468 
C     2.7509437    0.7340159    0.0000000 
C     2.5559858    1.4516352   -1.2074765 
C     2.2406625    0.7847609    2.4219899 
C     2.5559858    1.4516352    1.2074765 
C     1.4513824    1.7036414    3.2089468 
C    -0.1477120   -0.0760099    3.6088427 
C    -1.4945324   -0.0675449    3.0672579 
C     0.2476735    1.2813438    3.7315929 
C    -1.8445108    1.3233801    2.7321862 
C    -0.8275752    2.1636392    3.2218406 
C    -2.9675670    0.4925144    0.7194583 
C    -2.9675670    0.4925144   -0.7194583 
C    -2.4766024    1.6050927    1.4614353 
C    -1.8445108    1.3233801   -2.7321862 
C    -0.8275752    2.1636392   -3.2218406 
C    -2.4766024    1.6050927   -1.4614353 
C     1.1964914    2.9189778   -2.4195225 
C     1.8779147    2.7831917   -1.2168549 
C    -0.2371389    3.1711546   -2.4059813 
C     1.8779147    2.7831917    1.2168549 
C     1.1964914    2.9189778    2.4195225 
C    -0.2371389    3.1711546    2.4059813 
C     1.3240248    3.3104454    0.0000000 
C    -2.0123163    2.7485422    0.7313175 
C    -2.0123163    2.7485422   -0.7313175 
C    -0.8518493    3.4751065   -1.1764090 
C    -0.8518493    3.4751065    1.1764090 
C    -0.0383025    3.7327840    0.0000000 
