60 

C    -1.0771047    2.6097524   -3.3494886 
C    -1.3142857    1.2894488   -3.8096763 
C    -2.1380635    0.6123650   -2.8600785 
C    -1.7568719    2.8221260   -2.1344019 
C    -2.3779668    1.5565525   -1.7564740 
C    -0.7994339    3.2947152   -1.1847064 
C     0.3626969    2.6714374   -3.0550102 
C     0.5534872    3.1434991   -1.7509177 
C    -0.0426169    0.6818237   -4.1647438 
C     0.9998626    1.4689745   -3.4744511 
C     0.0426169   -0.6818237   -4.1647438 
C    -1.9327969   -0.7709199   -2.6011645 
C    -0.9998626   -1.4689745   -3.4744511 
C    -2.1509207   -1.2574116   -1.2485979 
C    -2.3983910    1.1130632   -0.4152077 
C    -2.4317861   -0.3182027   -0.1422618 
C    -0.9977960    3.0800879    0.1774150 
C    -1.8870868    2.0249276    0.6449004 
C     0.1657978    3.3699586    0.9530556 
C     1.5519682    2.5359107   -0.9120204 
C     1.4513908    2.8802892    0.4292995 
C     1.9327969    0.7709199   -2.6011645 
C     2.1509207    1.2574116   -1.2485979 
C     1.3142857   -1.2894488   -3.8096763 
C     2.1380635   -0.6123650   -2.8600785 
C    -0.3626969   -2.6714374   -3.0550102 
C     1.0771047   -2.6097524   -3.3494886 
C    -1.5519682   -2.5359107   -0.9120204 
C    -0.5534872   -3.1434991   -1.7509177 
C    -1.4513908   -2.8802892    0.4292995 
C    -2.3824973   -0.7534004    1.2485425 
C    -2.0740283   -2.1371332    1.4805577 
C    -1.7919686    1.6041204    2.0137014 
C    -2.1298252    0.2035041    2.3591178 
C     0.1361286    3.1597977    2.3071955 
C    -0.8934338    2.3609640    2.8964753 
C     2.0740283    2.1371332    1.4805577 
C     1.4384582    2.5563058    2.6955815 
C     2.4317861    0.3182027   -0.1422618 
C     2.3824973    0.7534004    1.2485425 
C     2.3779668   -1.5565525   -1.7564740 
C     1.7568719   -2.8221260   -2.1344019 
C     0.7994339   -3.2947152   -1.1847064 
C     2.3983910   -1.1130632   -0.4152077 
C    -0.1657978   -3.3699586    0.9530556 
C     0.9977960   -3.0800879    0.1774150 
C     1.8870868   -2.0249276    0.6449004 
C    -1.4384582   -2.5563058    2.6955815 
C    -0.1361286   -3.1597977    2.3071955 
C    -1.6456284   -0.3112364    3.6146009 
C    -1.2242481   -1.6834812    3.7172218 
C    -0.2536957    1.6931753    3.9962359 
C     1.2242481    1.6834812    3.7172218 
C    -0.6114034    0.4233776    4.3253002 
C     2.1298252   -0.2035041    2.3591178 
C     1.7919686   -1.6041204    2.0137014 
C     0.8934338   -2.3609640    2.8964753 
C     0.2536957   -1.6931753    3.9962359 
C     1.6456284    0.3112364    3.6146009 
C     0.6114034   -0.4233776    4.3253002 
