60 

C     0.9316433   -4.3095144    0.1362898 
C     1.1531851   -3.8579194   -1.2067425 
C     2.1547540   -2.8571145   -1.1465627 
C     1.7208052   -3.5097859    1.0524148 
C     2.5375014   -2.6629779    0.2742215 
C     0.8413054   -2.9251143    2.0424375 
C    -0.4277643   -4.1451818    0.4594289 
C    -0.5052541   -3.4399954    1.7234517 
C    -0.1494973   -3.4798610   -1.7409830 
C    -1.1546754   -3.6453853   -0.6939994 
C    -0.2446989   -2.3570780   -2.5486866 
C     2.0966237   -1.7017239   -2.0010676 
C     0.9202958   -1.5019275   -2.7793778 
C     2.7873382   -0.5367035   -1.5822444 
C     2.8653417   -1.3719581    0.7513247 
C     3.2720771   -0.4114528   -0.2205434 
C     1.0103922   -1.5868098    2.4626120 
C     2.1848734   -0.8713164    1.9596102 
C    -0.1804212   -0.7954763    2.8564181 
C    -1.5938955   -2.6523021    1.9408816 
C    -1.4527135   -1.4041213    2.6911002 
C    -2.2011647   -2.6960380   -0.5111678 
C    -2.5679766   -2.4138681    0.8588353 
C    -1.4001020   -1.4963640   -2.5024742 
C    -2.3899850   -1.6039072   -1.4881811 
C     0.4623927   -0.1778192   -3.0878338 
C    -0.9790979   -0.2023587   -3.0258370 
C     2.4205588    0.7827822   -2.0252483 
C     1.1860644    0.9986623   -2.7083395 
C     3.3757460    0.9766231    0.0940297 
C     2.9115854    1.7418227   -1.0551776 
C     2.2894925    0.4944086    2.2444878 
C     3.0351725    1.4025702    1.3946578 
C    -0.1391078    0.6627025    2.8652174 
C     1.1557110    1.2611064    2.7763662 
C    -1.2885737    1.4806622    2.4573334 
C    -2.5553299   -0.6019370    2.3449831 
C    -3.1947671   -1.2098493    1.1731298 
C    -2.4911327    0.7842128    2.1535263 
C    -3.1000510   -0.3610557   -1.1239737 
C    -3.4961334   -0.1798420    0.2425406 
C    -3.2534460    1.0804225    0.9344234 
C    -1.6934316    0.9404960   -2.7602264 
C    -2.8260163    0.8471778   -1.8506798 
C     0.4338220    2.2473702   -2.4490252 
C    -1.0013962    2.2079137   -2.5656520 
C     2.2527875    2.9594166   -0.8737863 
C     0.9894288    3.2069897   -1.5494698 
C     2.4959014    2.7149882    1.5678229 
C     1.3122033    2.6188822    2.4313854 
C     2.1600978    3.5010308    0.4680284 
C    -1.0684514    2.7823324    1.7867282 
C     0.1272958    3.8989967   -0.5791925 
C     0.2479761    3.3586107    1.8268901 
C     0.8022434    3.9904566    0.6559749 
C    -2.9449164    2.2185932    0.2172001 
C    -2.8904682    2.1075846   -1.2043491 
C    -1.8113615    2.9554209   -1.6661854 
C    -1.8794914    3.1099506    0.6592911 
C    -1.2532947    3.6345722   -0.5560360 
