60 

C     0.8723267    4.2980661    0.4215695 
C    -0.5057222    4.3878820    0.3193668 
C    -0.9239754    3.9066618   -1.0366465 
C     1.3744655    3.9223472   -0.9256726 
C     0.2529699    3.4876821   -1.7258266 
C     2.4497334    3.0829916   -0.7634008 
C     1.4783476    3.3898760    1.3769308 
C     2.5700687    2.7993045    0.6816477 
C     0.6436805    2.5143542    2.2053944 
C    -1.3275797    3.7648124    1.2673317 
C    -0.7548110    2.7966373    2.1992046 
C    -2.0434702    3.0681314   -0.8654800 
C    -2.3760509    3.0855546    0.5567928 
C    -2.1306691    1.8389254   -1.5845285 
C     0.2769316    2.1843587   -2.3455393 
C    -0.9956704    1.4865068   -2.4365377 
C     2.5519345    1.8334087   -1.4397694 
C     1.5013093    1.3614496   -2.2765956 
C     2.9414280    1.4704202    0.8372699 
C     3.1165632    0.8909509   -0.4908498 
C     1.0742669    1.1064797    2.4514323 
C     2.3393780    0.6578382    1.8587782 
C     0.1148091    0.0747372    2.7973671 
C    -1.6770338    1.6972699    2.2661431 
C    -2.6547820    1.8724136    1.1964106 
C    -1.3002879    0.4047152    2.6560205 
C    -2.9370448    0.7546753   -1.0053764 
C    -3.1268756    0.7542560    0.4510394 
C    -2.9340935   -0.5057498   -1.6461143 
C    -0.9623365    0.1658763   -2.9584439 
C    -2.0358617   -0.7217997   -2.7200410 
C     1.4604321   -0.0871777   -2.5178952 
C     0.2686317   -0.6086023   -3.0508666 
C     3.1115603   -0.4891330   -0.6789080 
C     2.3685812   -1.0243404   -1.8177958 
C     2.6508796   -0.6987345    1.7548282 
C     3.2350261   -1.2518679    0.5342562 
C     0.4962556   -1.3603336    2.7643299 
C     1.8180998   -1.7222249    2.3439034 
C    -0.5049291   -2.3640468    2.5568248 
C    -2.2400188   -0.6208282    2.3010555 
C    -3.1248394   -0.4631865    1.1530281 
C    -1.8657956   -1.9740471    2.3739054 
C    -3.0036970   -1.7707488   -0.9064864 
C    -3.1493420   -1.7477075    0.4709920 
C    -2.4184440   -2.6924202    1.2635710 
C    -1.5039923   -2.0610905   -2.6155072 
C    -0.0949336   -2.0073832   -2.8799622 
C    -2.0529640   -2.7296171   -1.5009155 
C     2.0462560   -2.4133485   -1.7719553 
C     0.7305118   -2.8693455   -2.1926444 
C     2.9326066   -2.6221937    0.5210303 
C     2.0765514   -2.9479973    1.6702845 
C     2.3907521   -3.2083634   -0.6301910 
C    -0.2813160   -3.5022804    1.6604656 
C    -1.4068533   -3.5465978    0.7334650 
C    -1.1963052   -3.5694929   -0.6946610 
C     0.1672921   -3.7446530   -1.1491529 
C     1.0099228   -3.7705099    1.2045982 
C     1.2081227   -3.9627605   -0.2214739 
