60 

C    -3.1258117   -3.0418529   -0.4531273 
C    -1.9453690   -3.7414000   -0.1521257 
C    -1.4611299   -3.3856287    1.1821416 
C    -3.3290844   -2.1258165    0.6220671 
C    -2.2996763   -2.2865639    1.6273047 
C    -3.5219555   -0.8157784    0.1037910 
C    -2.8165496   -2.1869726   -1.6093351 
C    -3.1598163   -0.8534738   -1.3186108 
C    -1.0149481   -3.5700472   -1.2490945 
C    -1.4883984   -2.4352823   -2.0643682 
C     0.3145224   -3.7161150   -1.0084785 
C    -0.0707098   -3.4174855    1.4462054 
C     0.8091596   -3.8846362    0.3801204 
C     0.4568606   -2.3976323    2.3062747 
C    -1.7222163   -1.1321987    2.2496897 
C    -0.3693724   -1.2396393    2.6582052 
C    -3.1845628    0.3163865    0.8571721 
C    -2.2279977    0.2142565    1.9549933 
C    -3.2153689    1.5034558    0.0818165 
C    -2.3908991    0.2182204   -1.8709230 
C    -2.7040250    1.4581721   -1.3009685 
C    -0.5712699   -1.3751106   -2.4325892 
C    -1.0589960    0.0005607   -2.4202454 
C     1.2709069   -2.9213708   -1.7474610 
C     0.8599216   -1.6541656   -2.3343070 
C     2.1476338   -3.5103105    0.3607940 
C     2.4755392   -3.0313385   -1.0140658 
C     1.8139041   -1.9573623    2.2226384 
C     2.7007229   -2.5559539    1.2840822 
C     0.4794160   -0.0959696    2.7461935 
C     1.8288557   -0.5171561    2.4345546 
C    -1.4164355    1.3812035    2.2356264 
C     0.0156223    1.2204337    2.5063221 
C    -2.7876860    2.6935101    0.6263133 
C    -1.8523019    2.6681836    1.7208132 
C    -1.9477632    2.6441926   -1.5571355 
C    -2.1993902    3.5213862   -0.4395200 
C    -0.1390174    1.1396791   -2.4481727 
C    -0.6312671    2.5138797   -2.1250236 
C     1.7816560   -0.5355386   -2.2648403 
C     1.2804216    0.8437811   -2.3718844 
C     3.3234379   -1.9508679   -0.9096969 
C     3.5464616   -1.6728310    0.5446799 
C     3.0367219   -0.7396172   -1.5709936 
C     2.6717168    0.3491953    1.7049725 
C     3.5220468   -0.2877944    0.7127551 
C     3.4670395    0.2822625   -0.6357682 
C     0.9885747    2.2179573    2.0415035 
C     2.2595858    1.7395997    1.5115334 
C    -0.9193990    3.7148342    1.4979637 
C    -1.1821343    4.2673924    0.1286797 
C     0.4776192    3.4987939    1.5805236 
C     0.3074915    3.5424648   -1.7167158 
C     0.0274508    4.3779261   -0.5569351 
C     1.0883332    4.1525324    0.4277629 
C     2.1467125    1.8992421   -1.8900568 
C     3.0805722    1.5574199   -0.8092684 
C     2.7707408    2.4010514    0.3297648 
C     1.6741725    3.1732530   -1.5963944 
C     2.1297312    3.5246835   -0.2191530 
