60 

C    -0.1075593   -4.0211024   -0.7359316 
C    -1.3537894   -3.8930907   -0.1505696 
C    -1.1450704   -3.6312523    1.2930454 
C     0.9334715   -3.9820977    0.3293870 
C     0.2643922   -3.6148942    1.5428294 
C     2.0291488   -3.2607447   -0.1455101 
C     0.3044832   -3.1490590   -1.7859080 
C     1.7010676   -2.8727518   -1.5369387 
C    -0.5712458   -2.1177340   -2.2788173 
C    -2.2918757   -2.9680074   -0.6635432 
C    -1.9419287   -2.1257191   -1.7913249 
C    -1.9774004   -2.5532651    1.6399851 
C    -2.8675157   -2.3197421    0.5072975 
C    -1.4541195   -1.3919502    2.3475577 
C     0.7835410   -2.5317852    2.2849115 
C    -0.0868809   -1.4595500    2.7174434 
C     2.6961388   -2.2817206    0.6991209 
C     2.0421314   -1.9380918    1.9195526 
C     3.4472731   -1.2490937    0.0395913 
C     2.2804379   -1.7554223   -2.0747542 
C     3.3563940   -1.1177292   -1.3701947 
C     0.0340151   -0.8272543   -2.6838744 
C     1.4431746   -0.7130576   -2.6571581 
C    -0.7389647    0.4285610   -2.6607744 
C    -2.7006896   -0.9280350   -1.9283884 
C    -2.1224675    0.3260894   -2.4214641 
C    -3.5010804   -1.1150648    0.3815803 
C    -3.6450795   -0.5703103   -0.9319710 
C    -2.0803057   -0.0703567    2.1501000 
C    -3.2058840    0.0012649    1.2881857 
C    -1.2973090    1.1707321    2.3976111 
C     0.7144233   -0.2549562    2.8216889 
C     2.0325106   -0.5525494    2.3739185 
C     0.1432151    1.0518699    2.7212592 
C     3.5824797    0.1000547    0.6044783 
C     2.8449786    0.4553843    1.7769402 
C     3.3153759    0.2811335   -1.6803848 
C     2.1177986    0.5491859   -2.3972527 
C     3.6087129    1.0307867   -0.5005913 
C    -0.0640634    1.7403917   -2.4082668 
C     1.3898371    1.7730030   -2.1890333 
C    -0.8202181    2.8210255   -1.8920381 
C    -2.8571935    1.4294750   -1.8122345 
C    -3.7003701    0.8616721   -0.8188497 
C    -3.5043384    1.2154216    0.5569272 
C    -2.2127427    2.6347332   -1.5205601 
C    -1.7510281    2.3938923    1.8456379 
C    -2.8239100    2.3995998    0.8534820 
C    -2.3920867    3.2166334   -0.2278046 
C    -0.2217019    3.7535055   -0.9246662 
C    -0.7996938    3.4410300    1.4631204 
C    -1.1563627    3.8675481    0.1523151 
C     1.0465881    2.1042191    2.4267893 
C     2.3904918    1.8077355    1.9283860 
C     0.5649418    3.3073826    1.7614780 
C     3.0386538    2.2994709   -0.3828408 
C     1.9801157    2.7284389   -1.3152641 
C     1.1334897    3.6741068   -0.6099079 
C     2.6556061    2.7556615    0.9021453 
C     1.5179875    3.6463790    0.7700521 
