60 

C    -0.7982092   -4.6940121   -0.2010952 
C     0.2165525   -4.6143259   -1.1329619 
C     1.4381649   -4.1884669   -0.4524597 
C    -0.2781013   -4.2801059    1.1199912 
C     1.1380391   -4.0373498    0.9731468 
C    -1.1085005   -3.2393842    1.5886705 
C    -1.8746586   -3.7970764   -0.5822721 
C    -2.1487398   -3.0013473    0.5539282 
C    -0.1553507   -3.5946709   -2.1263301 
C    -1.4811328   -3.1072477   -1.7993235 
C     1.9021206   -3.0520729   -1.1366468 
C     0.8744969   -2.6412369   -2.1436499 
C     2.6070072   -2.0233522   -0.4623910 
C     1.6740949   -2.9273195    1.6289107 
C     2.6335720   -2.0857390    0.9657781 
C    -0.5785827   -2.0761245    2.2703094 
C     0.8306361   -2.0072881    2.4029579 
C    -1.3213567   -0.8280928    2.2880059 
C    -2.6679695   -1.7168770    0.3960446 
C    -2.5489653   -0.7599956    1.4955751 
C    -1.7639936   -1.7322651   -1.9152221 
C    -2.6908845   -1.1778996   -0.9479161 
C     0.6187857   -1.2417288   -2.3614684 
C    -0.7497477   -0.7911531   -2.4027975 
C     2.7047336   -0.7282374   -1.1116772 
C     1.6778342   -0.2921095   -2.0571992 
C     3.3768773    0.2774436   -0.3675934 
C     2.6775591   -0.8375199    1.6869099 
C     1.4885071   -0.7264831    2.4903544 
C     3.1970611    0.2761814    1.0991184 
C    -0.6504974    0.4331877    2.6100423 
C     0.8036084    0.5118907    2.5834840 
C    -1.3693972    1.6554274    2.4404343 
C    -3.1997752    0.4701277    1.3290341 
C    -2.6870787    1.6432455    1.9476646 
C    -3.0685610    0.1607276   -1.1028217 
C    -3.6094596    0.8743916   -0.0110907 
C    -1.0268230    0.6387085   -2.4060300 
C    -2.2994755    1.0689257   -1.9372577 
C     1.4540158    1.1278220   -2.2902784 
C     0.0672047    1.6067304   -2.4701451 
C     3.3388746    1.5975537   -0.7786629 
C     2.4437431    2.0539606   -1.7985607 
C     2.7543370    1.5886325    1.4941659 
C     1.4897090    1.7474159    2.1431101 
C     3.1307943    2.4566437    0.4084975 
C    -0.7013001    2.8868258    1.9679372 
C     0.7014082    2.9500124    1.7951747 
C    -2.8124522    2.7689171    1.0149275 
C    -3.3259695    2.2723669   -0.1950217 
C    -2.5240581    2.3976099   -1.4062606 
C    -1.6234772    3.5427801    1.0522488 
C    -0.2427496    2.9656640   -2.1233218 
C    -1.4793128    3.2983931   -1.4282510 
C    -1.1075593    4.0217692   -0.1826853 
C     2.0608665    3.3854909   -1.4019399 
C     2.3924852    3.5516891    0.0449548 
C     1.1805884    3.8629480    0.7500083 
C     0.7671580    3.8071374   -1.5547536 
C     0.2533041    4.2988622   -0.2533001 
