60 

C    -2.3987310   -3.6865185    0.5954598 
C    -1.0815748   -3.9709345    1.1011162 
C    -0.6870915   -2.9764003    2.0548686 
C    -2.8218856   -2.4957211    1.1967880 
C    -1.7911454   -2.0244838    2.1239259 
C    -3.2395258   -1.5430752    0.2029809 
C    -2.2022116   -3.3367934   -0.8108642 
C    -2.7521782   -2.0382423   -1.0687742 
C    -0.1978496   -4.1976863   -0.0085797 
C    -0.8670540   -3.5834967   -1.1882615 
C     1.1524668   -4.0343768    0.1766193 
C     0.6845872   -2.5382684    2.1111919 
C     1.6431984   -3.2832158    1.3435012 
C     0.9287417   -1.1281107    2.3843039 
C    -1.5767198   -0.6553564    2.3002707 
C    -0.2104378   -0.2413261    2.6397594 
C    -3.2205531   -0.1734883    0.4906468 
C    -2.4715026    0.3269181    1.6338409 
C    -3.2938109    0.6495864   -0.6720224 
C    -2.1056833   -1.1200048   -1.9616055 
C    -2.5868917    0.1921977   -1.8699138 
C    -0.1211118   -2.6445487   -2.0250877 
C    -0.7250212   -1.3574299   -2.3948193 
C     1.9301360   -3.6024445   -0.9626201 
C     1.2855847   -2.7577548   -1.9735422 
C     2.8519957   -2.6486895    0.9101311 
C     3.0785074   -2.9540495   -0.5073537 
C     2.1484276   -0.5027716    1.8953958 
C     3.0329465   -1.2694488    1.0859465 
C     2.2595938    0.9395829    1.7757779 
C     0.0293098    1.1253313    2.7684167 
C     1.3254853    1.7087229    2.4943345 
C    -2.1454466    1.7266022    1.6793784 
C    -0.9807673    2.1303850    2.4253744 
C    -3.0885846    2.0191752   -0.5714671 
C    -2.5357133    2.6095273    0.5884326 
C    -1.8576294    1.3203795   -2.4024108 
C    -2.3126970    2.4847051   -1.7292236 
C     0.1186475   -0.2011043   -2.6371814 
C    -0.4633565    1.1527081   -2.6935756 
C     2.1188037   -1.5796325   -2.1353101 
C     3.2309858   -1.7118793   -1.2068114 
C     3.3657046   -0.6896998   -0.2465792 
C     1.5487553   -0.3181562   -2.3763274 
C     2.8241153    1.5420824    0.5493203 
C     2.9907685    0.6197588   -0.5615409 
C     2.2450265    0.8349397   -1.7910522 
C     2.5359647    2.8854116    0.2226749 
C     1.1093818    3.0909945    2.1842988 
C    -0.3273047    3.3455171    2.1452185 
C     1.7348309    3.7021828    1.1016685 
C    -1.6625162    3.7023514    0.1421966 
C    -1.4575349    3.5147043   -1.3185988 
C    -0.5956746    4.1025614    0.9404842 
C     0.6955590    4.3832201    0.3136152 
C     0.3536714    2.3026729   -2.4736674 
C     1.7319663    2.1204966   -2.0011288 
C     2.0603836    3.1639925   -1.1127969 
C    -0.1452380    3.5150167   -1.8509960 
C     0.9078972    4.0533841   -1.0258266 
