60 

C    -0.2032928    4.8080758    0.4547943 
C     0.9427068    4.6770853   -0.3241052 
C     0.6194446    4.0986889   -1.6070007 
C    -1.2993023    4.2447585   -0.2927360 
C    -0.7939219    3.7403400   -1.5729013 
C    -1.9226032    3.2936769    0.5413056 
C    -0.0141889    3.9749139    1.6572167 
C    -1.1157047    3.1383435    1.7951506 
C     1.8813411    3.7755961    0.3512721 
C     1.2952517    3.3340800    1.5941484 
C     1.5736230    3.0661987   -1.8428609 
C     2.3512820    2.8301872   -0.6042562 
C     1.1846608    1.9359217   -2.5336596 
C    -1.2123351    2.4533038   -2.0498698 
C    -0.2300761    1.6666061   -2.7347240 
C    -2.5461863    2.1374738    0.0211772 
C    -2.2437248    1.6743077   -1.3253498 
C    -2.9135665    1.1813184    1.0227003 
C    -0.9794255    1.8363593    2.3866847 
C    -2.0635015    0.9701419    2.2081964 
C     1.4512855    1.9764434    1.9667622 
C     0.3341352    1.2413120    2.5673382 
C     2.6766958    1.5164969   -0.2012302 
C     2.4038578    1.1875656    1.1890415 
C     1.8312084    0.6698093   -2.3170461 
C     2.6223510    0.4122320   -1.1696716 
C    -0.3653853    0.2619466   -2.9083664 
C     0.9363807   -0.3602371   -2.7599574 
C    -2.4753254    0.2716982   -1.6384128 
C    -1.5302896   -0.4395290   -2.5034271 
C    -3.3976748   -0.0531794    0.6370522 
C    -3.1820051   -0.5434704   -0.6803332 
C    -1.9817605   -0.4466737    2.4363630 
C    -2.9324488   -1.0732184    1.5829311 
C     0.4308743   -0.1878727    2.7752582 
C    -0.7295092   -1.0873947    2.6834771 
C     2.5851389   -0.1316785    1.5619264 
C     1.7094076   -0.7702694    2.5386260 
C     2.7974693   -0.9705170   -0.7488482 
C     3.0547141   -1.1533144    0.6483986 
C     1.1102556   -1.7176500   -2.4299558 
C     2.1734259   -2.0817988   -1.4842595 
C    -1.3822528   -1.8477296   -2.4359686 
C    -0.0915682   -2.4987965   -2.5355327 
C    -2.9054633   -1.9533976   -0.5349773 
C    -2.6441115   -2.2459847    0.8959728 
C    -2.1637494   -2.6390562   -1.4839311 
C    -0.5768078   -2.4914993    2.2618886 
C    -1.5427168   -3.0736427    1.3035110 
C     1.8566396   -2.1518021    2.4045772 
C     2.7959573   -2.3963386    1.2789688 
C     0.7610510   -3.0430252    2.2720804 
C     2.0572860   -3.3702694   -0.8342200 
C     2.3657747   -3.4912495    0.5705764 
C     1.1588722   -4.0166259    1.2727767 
C    -0.1706062   -3.7428184   -1.8324347 
C    -1.4212839   -3.7733713   -1.0787626 
C    -1.0885191   -4.0073529    0.3012628 
C     0.8760580   -4.1636140   -1.0269268 
C     0.2821586   -4.4515040    0.3102903 
