60 

C    -0.2555399    4.6036151    0.4315330 
C     1.1041187    4.3305263    0.2311318 
C     1.5898206    3.5742316    1.3839872 
C    -0.6820621    3.8241932    1.6165126 
C     0.4345555    3.1715293    2.1749900 
C    -1.8221309    3.0448969    1.2302507 
C    -1.1880916    4.3509200   -0.6103180 
C    -2.1970255    3.4247973   -0.0931965 
C    -0.7447957    3.8334135   -1.8449243 
C     1.5502629    3.6337807   -0.9634655 
C     0.6239658    3.3888991   -2.0043126 
C     2.4574973    2.5776627    0.9321153 
C     2.4277716    2.5487479   -0.5422650 
C     2.5298678    1.3715517    1.6466534 
C     0.3159633    1.8070604    2.6510585 
C     1.4851783    1.0153983    2.5992888 
C    -1.9445670    1.6733140    1.6344566 
C    -0.9562391    1.0834450    2.5139037 
C    -2.6554074    0.7846918    0.7209909 
C    -2.4619158    2.4184485   -1.0958319 
C    -1.6043176    2.7143408   -2.2099277 
C    -2.6845285    1.0868379   -0.7120701 
C     0.5863518    2.0606236   -2.5921643 
C    -0.8210194    1.6684661   -2.7239075 
C     2.4728603    1.3021847   -1.1929193 
C     1.5194709    1.0558340   -2.2850820 
C     2.9296382    0.1873754    1.0004301 
C     2.9483812    0.1269112   -0.4332508 
C     1.4428657   -0.4184422    2.6671737 
C     2.4102543   -0.9498110    1.7586735 
C    -0.9991215   -0.3480905    2.7736441 
C     0.2381127   -1.1262477    2.9244879 
C    -2.7950245   -0.5390172    1.1051745 
C    -2.1270525   -1.0593674    2.2712974 
C    -2.9339616   -1.6245865    0.1284042 
C    -2.2745421    0.0075894   -1.6114927 
C    -1.2142248    0.3211667   -2.5438744 
C    -2.4810015   -1.3665485   -1.2204756 
C     1.1806107   -0.3132215   -2.6517329 
C    -0.2229309   -0.6909842   -2.8476468 
C     2.8311592   -1.1439218   -1.0062267 
C     2.0702868   -1.3380848   -2.2400444 
C     2.2810937   -2.2325253    1.1888439 
C     2.6596160   -2.3605924   -0.2059651 
C     0.2613410   -2.5229004    2.6003006 
C     1.2517317   -3.0745578    1.7017264 
C    -2.1116722   -2.4752879    2.1210247 
C    -2.6450700   -2.8332407    0.7741716 
C    -0.9687940   -3.2182256    2.3230459 
C     0.5859507   -4.0673428    0.8282372 
C    -1.7999971   -3.8214033    0.1984440 
C    -0.7751319   -4.1249182    1.1811857 
C    -1.7468114   -2.3964145   -1.8610064 
C    -0.6193727   -2.0438664   -2.7175874 
C    -1.4084377   -3.6460673   -1.1609146 
C     1.6714026   -2.6935508   -2.2752780 
C     2.0546381   -3.3482466   -1.0051296 
C     0.9553000   -4.1368914   -0.5533409 
C     0.3620715   -3.0686240   -2.5664499 
C    -0.0913518   -4.0094742   -1.5423369 
