60 

C     1.3196490    4.1431872    0.0000000 
C     1.7147877    3.5174036   -1.1986281 
C     0.5664734    3.4041050   -2.0622510 
C    -0.1396768    4.2304417    0.0000000 
C    -0.5963648    3.6630306   -1.2336766 
C    -0.5963648    3.6630306    1.2336766 
C     1.7147877    3.5174036    1.1986281 
C     0.5664734    3.4041050    2.0622510 
C     2.4508426    2.2710269    1.2284703 
C     2.4508426    2.2710269   -1.2284703 
C     2.8105517    1.6101985    0.0000000 
C     0.6894042    2.1983811   -2.7814006 
C     1.8838148    1.4822484   -2.2896894 
C    -0.4499648    1.4539556   -3.0194849 
C    -1.7022332    2.7324721   -1.2674616 
C    -1.6832030    1.7644991   -2.3121659 
C    -1.7022332    2.7324721    1.2674616 
C    -2.3604768    2.3391711    0.0000000 
C    -1.6832030    1.7644991    2.3121659 
C     0.6894042    2.1983811    2.7814006 
C     1.8838148    1.4822484    2.2896894 
C    -0.4499648    1.4539556    3.0194849 
C     1.9596981    0.0789126    2.3063912 
C     2.9290218    0.1660861    0.0000000 
C     2.7231927   -0.5654772    1.2477500 
C     1.9596981    0.0789126   -2.3063912 
C     2.7231927   -0.5654772   -1.2477500 
C    -0.3650872    0.0234905   -3.1697145 
C     0.8481800   -0.6650036   -2.9294067 
C    -2.4306353    0.5373800   -2.2421867 
C    -1.6256040   -0.5491194   -2.7626278 
C    -3.1967866    1.1949275    0.0000000 
C    -3.2770159    0.3076987   -1.1567299 
C    -2.4306353    0.5373800    2.2421867 
C    -3.2770159    0.3076987    1.1567299 
C    -0.3650872    0.0234905    3.1697145 
C     0.8481800   -0.6650036    2.9294067 
C    -1.6256040   -0.5491194    2.7626278 
C     0.7295588   -2.0634832    2.6722362 
C     2.7215399   -1.9968277    1.2194251 
C     1.7668293   -2.7396177    2.0180719 
C     2.7215399   -1.9968277   -1.2194251 
C     2.8645815   -2.6902683    0.0000000 
C     0.7295588   -2.0634832   -2.6722362 
C     1.7668293   -2.7396177   -2.0180719 
C    -1.7107338   -1.8894294   -2.2311422 
C    -0.5332471   -2.6711586   -2.2687265 
C    -3.4598303   -1.0389190   -0.7137072 
C    -3.4598303   -1.0389190    0.7137072 
C    -2.6365718   -2.1172322   -1.1654917 
C    -1.7107338   -1.8894294    2.2311422 
C    -0.5332471   -2.6711586    2.2687265 
C    -2.6365718   -2.1172322    1.1654917 
C    -2.1998277   -2.8684026    0.0000000 
C     1.1931412   -3.8175897    1.2203536 
C     1.8737752   -3.8228987    0.0000000 
C     1.1931412   -3.8175897   -1.2203536 
C    -0.2338224   -3.6600077   -1.2425806 
C    -0.2338224   -3.6600077    1.2425806 
C    -0.9871091   -3.6239203    0.0000000 
