60 

C    -1.6651581    4.0280662    0.7358362 
C    -0.9726549    4.0694204   -0.5081400 
C    -1.5809110    3.1303741   -1.4262504 
C    -2.6245140    2.9871756    0.6584699 
C    -2.6541366    2.4748361   -0.6956058 
C    -2.3129952    2.0263886    1.6772916 
C    -0.6858713    3.6704454    1.7446937 
C    -1.0743264    2.4390900    2.3501181 
C     0.4487630    4.0122472   -0.2710422 
C     0.6284253    3.7847805    1.1808068 
C     1.2548531    3.3026010   -1.1616204 
C    -0.7606480    2.3568404   -2.2998819 
C     0.6652775    2.4945660   -2.2206473 
C    -1.2458842    1.0730304   -2.6963917 
C    -2.9731326    1.1198130   -0.9191477 
C    -2.4063017    0.5035419   -2.0796155 
C    -2.6163425    0.6661973    1.5120437 
C    -3.1893740    0.2414886    0.2352811 
C    -1.8574109   -0.3024161    2.3076395 
C    -0.1026621    1.4427033    2.6895369 
C    -0.5015944    0.0394701    2.7322380 
C     1.6060240    2.8928530    1.6048524 
C     1.2666941    1.7621465    2.4434546 
C     2.4400623    2.6050207   -0.6908122 
C     2.6353896    2.4277852    0.6812409 
C     1.5248732    1.3664930   -2.4587748 
C     2.6756963    1.4827143   -1.5863032 
C    -0.3647410   -0.0201676   -3.0586219 
C     1.0385285    0.0707705   -2.8566963 
C    -2.3367182   -0.9349090   -2.2291695 
C    -1.0699326   -1.2621337   -2.8562073 
C    -3.3096611   -1.1472615   -0.0013478 
C    -2.8745167   -1.7606561   -1.2627741 
C    -2.2147287   -1.6651965    2.1540012 
C    -3.0056609   -2.0607113    1.0259001 
C    -1.2367330   -2.6905281    2.3391464 
C     0.5209483   -0.9990100    2.7076948 
C     0.1104894   -2.3649820    2.4903622 
C     2.2319851    0.7149902    2.2001569 
C     3.1325940    1.1602997    1.1606939 
C     1.8978250   -0.6598383    2.3638132 
C     3.3405924    0.3475027   -1.1557270 
C     3.6632014    0.2214420    0.2650137 
C     1.7733688   -1.1370389   -2.4541730 
C     2.9617473   -0.9703835   -1.6605975 
C    -0.3872800   -2.4134054   -2.4762054 
C     1.0448583   -2.3635963   -2.2779833 
C    -2.2380402   -3.0456559   -0.9528951 
C    -2.4357594   -3.2835049    0.4475959 
C    -1.3761490   -3.6886733    1.2570794 
C    -0.9834805   -3.3422251   -1.5200002 
C     0.8745129   -3.2569149    1.5945726 
C     1.3417923   -3.2814417   -1.1958804 
C    -0.0835578   -3.9400993    0.7137725 
C     0.1026338   -3.8383263   -0.6856071 
C     2.6893923   -1.6105036    1.6117448 
C     3.5471614   -1.1442373    0.5922218 
C     3.2418610   -1.9012304   -0.6294776 
C     2.0915703   -2.8544531    1.1224997 
C     2.3897559   -2.9755940   -0.3121758 
