60 

C     1.2944941    4.2531324    0.3185681 
C    -0.0546029    4.4682661    0.5890885 
C    -0.8390658    4.0673568   -0.6176307 
C     1.3847655    3.8873366   -1.1205461 
C     0.0528092    3.5730520   -1.5951821 
C     2.3807123    2.9563420   -1.2605250 
C     2.0394658    3.2680414    1.0531535 
C     2.8937817    2.6319112    0.0756652 
C     1.3550672    2.4098758    2.0211392 
C    -0.6643591    3.8388873    1.6729968 
C     0.0044137    2.7660333    2.3606461 
C    -2.0061599    3.3559914   -0.2046952 
C    -1.9653858    3.3104289    1.2269391 
C    -2.4306593    2.2141839   -0.9555518 
C    -0.2277283    2.2826821   -2.2311548 
C    -1.5673151    1.7339839   -2.0519065 
C     2.1586430    1.7121684   -1.9470645 
C     0.8849570    1.3582568   -2.4920721 
C     3.1553632    1.2791417    0.1077641 
C     2.8720097    0.7076604   -1.2316824 
C     1.7189007    0.9927422    2.1193857 
C     2.7710620    0.4910650    1.2435284 
C     0.7743129   -0.0162734    2.5900694 
C    -0.9756027    1.7142943    2.5685060 
C    -2.2073529    2.0953138    1.8796664 
C    -0.6329482    0.3548108    2.6770560 
C    -3.1561613    1.2265173   -0.2308248 
C    -2.9564697    1.1247437    1.2031382 
C    -3.3367609   -0.1108906   -0.7254493 
C    -1.7964730    0.4297636   -2.5354959 
C    -2.8196134   -0.4530941   -1.9822533 
C     0.6442905   -0.0637372   -2.7267136 
C    -0.6998358   -0.4229068   -2.9906614 
C     2.6399636   -0.6588974   -1.3916967 
C     1.5502744   -1.1164335   -2.2486749 
C     2.9589913   -0.8773078    1.0690569 
C     3.0838958   -1.4544720   -0.2893369 
C     1.1127808   -1.4471096    2.5381579 
C     2.3326973   -1.8602354    1.8952661 
C     0.0359571   -2.4079417    2.5166564 
C    -1.6706834   -0.6377477    2.3300968 
C    -2.7859609   -0.2457743    1.5232539 
C    -3.1786786   -1.0454093    0.3656936 
C    -1.3004196   -1.9877141    2.2507060 
C    -2.6738414   -2.3517671    0.1729520 
C    -1.8897224   -2.8953109    1.2451494 
C    -2.4192907   -1.7944054   -2.2094521 
C    -1.1172033   -1.7618600   -2.8555039 
C    -2.3280518   -2.7598667   -1.1818305 
C     1.0901362   -2.4911321   -2.0774775 
C    -0.2861774   -2.7915783   -2.3474041 
C    -1.1057412   -3.5437724   -1.4027618 
C     2.7399064   -2.7910799   -0.2036760 
C     2.4187286   -3.1121371    1.1816847 
C     1.7248502   -3.3479750   -1.0799902 
C     0.1878658   -3.7043708    1.8546745 
C    -0.9688216   -3.9339537    1.0176894 
C    -0.4902460   -4.1938306   -0.3332857 
C     1.3485426   -4.0018342    1.1368091 
C     0.9416940   -4.2231644   -0.2846575 
