60 

C    -3.7346275    0.2594159    0.9758908 
C    -2.9992275    0.4178465    2.1505695 
C    -2.4776780   -0.9281040    2.4830616 
C    -3.6288281   -1.1345083    0.5056103 
C    -2.7596750   -1.8332207    1.3639918 
C    -3.4718172   -1.1244980   -0.8966022 
C    -3.6008029    1.1164985   -0.1606065 
C    -3.4968185    0.2706123   -1.3514183 
C    -2.7672034    2.2373988   -0.0348334 
C    -2.1296996    1.5696013    2.3086394 
C    -2.0194741    2.4644855    1.1988257 
C    -0.9727059    1.4161148    3.1253510 
C    -1.3263704   -1.0669561    3.2099360 
C    -0.6881906    0.1117311    3.7357908 
C    -0.2788999   -2.0056940    2.7731419 
C    -1.7214190   -2.6713501    0.8323431 
C    -0.4397233   -2.7619616    1.5671410 
C    -2.5450779   -2.0267566   -1.4490489 
C    -1.7107836   -2.8297794   -0.5888437 
C    -1.7660691   -1.6422117   -2.6159907 
C    -2.6697101    0.6552570   -2.4027705 
C    -1.8282054   -0.3242570   -3.0871587 
C    -1.9536744    2.6594164   -1.1495650 
C    -1.9233896    1.9008826   -2.3321052 
C    -0.7504020    3.0483069    0.8443277 
C    -0.7253307    3.1990080   -0.6087152 
C     0.2788999    2.0056940    2.7731419 
C     0.4397233    2.7619616    1.5671410 
C     0.6881906   -0.1117311    3.7357908 
C     0.9727059   -1.4161148    3.1253510 
C     1.3263704    1.0669561    3.2099360 
C     2.1296996   -1.5696013    2.3086394 
C     0.7504020   -3.0483069    0.8443277 
C     2.0194741   -2.4644855    1.1988257 
C    -0.4641214   -3.0679159   -1.3040758 
C    -0.4940203   -2.3282391   -2.5534444 
C     0.7253307   -3.1990080   -0.6087152 
C     0.6709560   -1.7160423   -3.0308757 
C    -0.6105880    0.3426016   -3.5085663 
C    -0.6709560    1.7160423   -3.0308757 
C     0.6105880   -0.3426016   -3.5085663 
C     0.4641214    3.0679159   -1.3040758 
C     0.4940203    2.3282391   -2.5534444 
C     1.7214190    2.6713501    0.8323431 
C     1.7107836    2.8297794   -0.5888437 
C     2.4776780    0.9281040    2.4830616 
C     2.9992275   -0.4178465    2.1505695 
C     2.7596750    1.8332207    1.3639918 
C     3.7346275   -0.2594159    0.9758908 
C     3.6288281    1.1345083    0.5056103 
C     2.7672034   -2.2373988   -0.0348334 
C     1.9536744   -2.6594164   -1.1495650 
C     1.9233896   -1.9008826   -2.3321052 
C     3.6008029   -1.1164985   -0.1606065 
C     1.8282054    0.3242570   -3.0871587 
C     1.7660691    1.6422117   -2.6159907 
C     2.5450779    2.0267566   -1.4490489 
C     3.4718172    1.1244980   -0.8966022 
C     2.6697101   -0.6552570   -2.4027705 
C     3.4968185   -0.2706123   -1.3514183 
