60 

C    -3.6907291    2.1216758    0.7097937 
C    -3.8948698    0.7219503    0.6557811 
C    -3.1433808    0.0613217    1.7041714 
C    -2.6795739    2.3458585    1.6963171 
C    -2.3184187    1.0842759    2.3167194 
C    -1.6144161    3.0964057    1.1299997 
C    -3.0826042    2.4818540   -0.5531223 
C    -1.8702999    3.1790231   -0.3179742 
C    -3.6843870    0.2565664   -0.6953269 
C    -3.0399264    1.3465065   -1.4366502 
C    -3.2693696   -1.0432225   -0.8740035 
C    -2.6542767   -1.2561892    1.5187174 
C    -2.9231245   -1.8822387    0.2545701 
C    -1.4673182   -1.6580805    2.2653519 
C    -0.9755502    0.7995545    2.7021180 
C    -0.6242001   -0.6145017    2.8691217 
C    -0.2936909    2.9401944    1.6077987 
C     0.0541919    1.7995635    2.4450993 
C     0.6920525    3.4985462    0.7451825 
C    -0.7883939    3.0587401   -1.2213805 
C     0.4459407    3.5433797   -0.6849612 
C    -1.8991062    1.0752356   -2.2549571 
C    -0.7736258    2.0024280   -2.2201037 
C    -2.3880332   -1.3798915   -1.9746512 
C    -1.6761431   -0.3308660   -2.6559589 
C    -2.0556904   -2.9063929   -0.2552677 
C    -1.7679483   -2.6409738   -1.6571780 
C    -0.8547574   -2.8993278    1.8823119 
C    -1.0849554   -3.4599624    0.5691482 
C     0.5161541   -3.1678320    2.2078095 
C     0.7563232   -0.9158115    3.0937972 
C     1.2944152   -2.2103744    2.8198054 
C     1.4454437    1.3721072    2.3947181 
C     1.7489912    0.0341412    2.6826640 
C     2.1026287    3.2511248    0.9132548 
C     2.4275561    2.0519167    1.5952070 
C     1.7075864    3.3102440   -1.3225778 
C     2.7686805    3.2930405   -0.3639298 
C     0.5529341    1.5340020   -2.6428622 
C     1.7609816    2.1451526   -2.1590418 
C    -0.4118102   -0.7027440   -3.1997459 
C     0.7143101    0.2068729   -3.0744887 
C    -0.4985321   -2.9496184   -2.1745151 
C     0.0966169   -2.0160497   -3.0379305 
C     0.2365085   -3.8402977    0.0112777 
C     1.2178351   -3.6667671    1.0173706 
C     0.5558061   -3.4933228   -1.3001209 
C     2.5105257   -2.0513367    2.0069845 
C     2.7851010   -0.7036737    1.9127451 
C     2.3800614   -2.8611208    0.8131246 
C     3.3217282    1.2750882    0.7025234 
C     3.3889140    2.0183944   -0.5150939 
C     2.8792760    1.3358668   -1.6770387 
C     3.2912041   -0.1316653    0.6965058 
C     1.8962284   -0.5734916   -2.6964438 
C     1.5068150   -1.9102286   -2.6615137 
C     1.7901159   -2.7519082   -1.5550099 
C     2.6240020   -2.2626415   -0.4778270 
C     2.8277147   -0.0736886   -1.7290116 
C     3.1284889   -0.8868116   -0.5513033 
