60 

C     0.3200344    4.4627379    1.6241546 
C     0.2422487    4.7579430    0.2017602 
C    -1.0578906    4.4559017   -0.2307942 
C    -0.9133084    3.8121601    2.0275012 
C    -1.7840762    3.8673388    0.9169450 
C    -0.5947787    2.4883965    2.5489807 
C     1.3450439    3.4994752    1.7488439 
C     0.8460297    2.3329888    2.4365608 
C     1.3556657    4.1178109   -0.4890663 
C     2.0561247    3.3057346    0.5030964 
C     1.1405954    3.5532292   -1.7596271 
C    -1.2914422    3.6045729   -1.3688011 
C    -0.2307717    3.2418004   -2.2023339 
C    -2.4396254    2.6981655    0.4641689 
C    -2.2159355    2.5540784   -0.9635806 
C    -1.4299537    1.3570226    2.3109421 
C    -2.4492032    1.5124673    1.2826064 
C    -0.8694116    0.0327886    2.5277889 
C     1.3965389    1.0736680    2.1967699 
C     0.5764391   -0.0638809    2.5928298 
C     2.5747596    2.0123688    0.1936051 
C     2.3884507    0.9109986    1.1321759 
C     1.9467259    2.4440686   -2.1396065 
C     2.6616115    1.6597166   -1.1960790 
C    -0.2042775    1.9034345   -2.8119514 
C     1.1512182    1.5155888   -2.9165888 
C    -2.2170443    1.2652351   -1.5701210 
C    -1.1696346    0.8909939   -2.5165568 
C    -2.8666136    0.3487810    0.6411405 
C    -2.8148410    0.2346587   -0.8019566 
C    -1.5909998   -1.1747818    2.1388619 
C    -2.6190931   -0.9581624    1.1769685 
C    -0.9743351   -2.5144145    2.2008521 
C     1.1659108   -1.3181529    2.4968955 
C     0.4211232   -2.5697310    2.5329115 
C     2.6633907   -0.4318773    0.7230252 
C     2.3087849   -1.4723251    1.6211478 
C     2.5502398    0.2654228   -1.6016559 
C     1.5600352    0.1887064   -2.6558711 
C     2.6790849   -0.7947331   -0.7010700 
C    -0.7834289   -0.5178659   -2.6016192 
C     0.6310764   -0.8680309   -2.6480823 
C    -2.6659349   -1.1388672   -1.1316592 
C    -2.7933760   -1.9028945    0.1044728 
C    -1.6688584   -1.5379908   -2.0764189 
C    -1.4869529   -3.5777891    1.3513838 
C    -2.3101060   -3.1818079    0.2103202 
C    -0.6328406   -4.6291183    0.8507009 
C     1.2556335   -3.5569120    1.9214365 
C     2.3011930   -2.8105123    1.1963267 
C     0.7589313   -4.5389193    1.0718647 
C     2.1943705   -2.0993200   -1.1319568 
C     1.1153080   -2.1303958   -2.1089514 
C     2.2694194   -3.1856107   -0.1777061 
C     1.4219344   -4.3331229   -0.2702403 
C    -1.2047484   -2.8889454   -1.9823710 
C    -1.7786538   -3.8089049   -0.9877974 
C    -0.8395493   -4.7660699   -0.6027835 
C     0.1852781   -3.2099097   -2.0697087 
C     0.4144847   -4.3872080   -1.2320833 
