60 

C    -0.9182669    5.2245072    0.1278326 
C     0.3851539    5.4628651   -0.3292151 
C     0.5130707    4.9437358   -1.6612703 
C    -1.6435621    4.4218867   -0.8896560 
C    -0.7580284    4.2380222   -1.9815715 
C    -2.1638639    3.2776352   -0.2198121 
C    -0.8974952    4.4701531    1.3577444 
C    -1.7215964    3.3254421    1.1921545 
C     1.2888195    4.7143441    0.5832803 
C     0.5072186    4.2136143    1.6989668 
C     1.4635646    3.9022787   -1.5763723 
C     1.9993460    3.7694209   -0.2024778 
C    -0.4638792    2.8899013   -2.3812846 
C     0.9766730    2.6908245   -2.1937838 
C    -2.1487924    2.0040545   -0.8388989 
C    -1.2843572    1.8021376   -1.9847647 
C    -2.3723054    0.8418716   -0.0153173 
C    -1.4513351    2.0909584    1.8877146 
C    -2.0146675    0.8707433    1.3776011 
C     0.8306458    2.9642951    2.2105331 
C    -0.1996336    1.9773363    2.5630987 
C     2.3055865    2.4613730    0.2923244 
C     1.9039693    2.1732237    1.6328182 
C     1.4761994    1.4371832   -1.8315086 
C     2.2875500    1.3165364   -0.6184306 
C    -0.7468358    0.4696946   -2.1879377 
C     0.6636106    0.2858204   -2.1925216 
C    -2.4165197   -0.4267201   -0.6743655 
C    -1.5449482   -0.6672947   -1.8091970 
C    -2.7383471   -1.5422824    0.1360396 
C    -1.6303384   -0.4012659    1.9897837 
C    -2.2086738   -1.5650627    1.4903064 
C     0.4156863    0.6893142    2.6716347 
C     1.7182297    0.8207016    2.0511837 
C    -0.2991124   -0.5227432    2.5457147 
C     2.4174321    0.0044403   -0.1059822 
C     2.1659502   -0.2629359    1.2975468 
C     1.1856338   -1.0281343   -1.9871952 
C     2.2162030   -1.1304806   -0.9943527 
C    -1.0742084   -2.0051153   -2.0919620 
C     0.3664857   -2.1979291   -2.2733079 
C    -2.6155502   -2.8303142   -0.3765165 
C    -1.8299486   -3.1078430   -1.5366196 
C    -1.6740724   -2.8947560    1.7429205 
C    -2.1814854   -3.7402105    0.7045215 
C     0.4350421   -1.7593267    2.3194258 
C     1.7281176   -1.5874305    1.7041998 
C    -0.2813621   -3.0313582    2.1217656 
C     2.5218637   -2.4005916   -0.4826092 
C     2.2826047   -2.6598290    0.9734668 
C     0.9529793   -3.4831306   -2.0254067 
C     2.1161188   -3.5522956   -1.1836594 
C    -1.2148212   -4.3890174   -1.3206709 
C    -1.4203302   -4.7590219    0.1439688 
C     0.1101998   -4.6277368   -1.6290387 
C     0.4431441   -4.1806111    1.6239714 
C     1.7935313   -3.9643459    1.1149371 
C     1.8932090   -4.6180335   -0.1896568 
C    -0.1803215   -5.1216090    0.6892377 
C     0.7308198   -5.2968896   -0.4593304 
