60 

C     1.2401526    4.4919749   -0.9497073 
C     0.2148799    4.7176287    0.0480159 
C     0.6840047    4.2575869    1.3036698 
C     2.3013802    3.7366942   -0.3277575 
C     1.9826309    3.6161635    1.0468958 
C     2.4645371    2.4889528   -1.0482989 
C     0.6429528    3.6209634   -1.9068057 
C     1.4279293    2.4263461   -2.0582095 
C    -1.0507359    4.2021499   -0.4414234 
C    -0.7722670    3.4650701   -1.6819398 
C    -1.9381066    3.6247951    0.4752531 
C    -0.0945833    3.3362721    2.0774232 
C    -1.4389736    3.1262984    1.7668231 
C     1.9765679    2.3397510    1.6792281 
C     0.7186156    2.1451772    2.3559296 
C     2.7876860    1.2826297   -0.3836403 
C     2.5607166    1.2086082    1.0494064 
C     2.6435409    0.0699424   -1.1564297 
C     0.8310703    1.1841892   -2.4227770 
C     1.6420012    0.0083225   -2.2060287 
C    -1.4058982    2.2159817   -1.9762162 
C    -0.6103513    1.0676672   -2.4687435 
C    -2.8456825    2.6481330   -0.0177509 
C    -2.5869503    1.9238122   -1.2160489 
C    -2.0340443    1.8122001    1.9881646 
C    -3.0393672    1.6470379    1.0013926 
C     0.1659420    0.8360906    2.5322100 
C    -1.2650191    0.6543667    2.3830322 
C     2.2703862   -0.0695315    1.6138021 
C     1.0453874   -0.3047219    2.3548128 
C     2.9993495   -1.1231299   -0.5114411 
C     2.8716759   -1.1638619    0.9418703 
C     2.6524919   -2.4344378   -1.0160384 
C     1.0999720   -1.2608113   -2.5089739 
C     1.6403043   -2.5056438   -1.9900531 
C    -1.1695375   -0.2737902   -2.4738707 
C    -0.3167628   -1.3971097   -2.6608089 
C    -2.9748556    0.5386549   -0.9988315 
C    -3.2501925    0.3867280    0.4109791 
C    -2.4049676   -0.5267684   -1.7245175 
C    -1.7651999   -0.6822470    2.0700383 
C    -2.8246293   -0.7758287    1.0721683 
C     0.5193504   -1.6598021    2.4410360 
C    -0.9258686   -1.8521542    2.2785871 
C     2.5629293   -2.4677383    1.3208124 
C     2.5733589   -3.3280732    0.1153420 
C     1.4055596   -2.7511250    2.0949036 
C     1.5687635   -4.2586344    0.2346889 
C     0.8881075   -3.9898694    1.5463477 
C     0.5562145   -3.4763539   -1.8712729 
C    -0.6611978   -2.7701135   -2.2605865 
C     0.5406897   -4.3944297   -0.7757892 
C    -2.6248780   -1.8154878   -1.1775515 
C    -2.8917162   -1.9278033    0.2474718 
C    -1.8564330   -2.9904603   -1.5659394 
C    -1.3922821   -3.1330329    1.7578477 
C    -0.4539663   -4.1709316    1.3803992 
C    -0.6970093   -4.5558277   -0.0526806 
C    -2.3472769   -3.1231263    0.7079484 
C    -1.8403962   -3.8973431   -0.4463676 
