60 

C    -0.1511836    4.6640710    0.9630093 
C     0.7544013    4.7106167   -0.1029930 
C     0.0763304    4.1872527   -1.3062291 
C    -1.4246881    4.1791042    0.4720771 
C    -1.3113139    3.9538523   -0.9667686 
C    -1.7950835    3.0674324    1.2720126 
C     0.3509160    3.6998439    1.9426119 
C    -0.6480535    2.7193437    2.1487554 
C     1.8722237    3.8607184    0.1856900 
C     1.6370662    3.2301314    1.4881259 
C     0.8421836    3.1174486   -1.8229709 
C     2.0144314    2.9688950   -0.9380056 
C     0.2291245    1.9100311   -2.3479184 
C    -1.9267195    2.8280146   -1.5022124 
C    -1.1858145    1.8642933   -2.3265497 
C    -2.5656986    2.0138501    0.7347420 
C    -2.7884044    2.0185406   -0.6814321 
C    -2.5395156    0.7277582    1.4192209 
C    -0.3205151    1.3394645    2.3603148 
C    -1.3601678    0.3376863    2.1904876 
C     1.9816678    1.8859534    1.6505128 
C     1.0625168    0.9283287    2.2653096 
C     2.5755190    1.7248671   -0.7604217 
C     2.8473425    1.3195960    0.6227615 
C     0.9473916    0.6445563   -2.3369966 
C     2.2671420    0.6390028   -1.7111540 
C     0.2549303   -0.6303565   -2.4884624 
C    -1.8587921    0.5981469   -2.2864488 
C    -2.9441260    0.7497619   -1.3433759 
C    -1.2043981   -0.6549336   -2.4091472 
C    -3.3215428   -0.2938087    0.8260826 
C    -3.4042577   -0.3295050   -0.6449704 
C    -3.1894633   -1.6127985    1.2388429 
C    -1.0329854   -1.0729111    2.3408452 
C    -2.0576638   -2.0394448    2.0173534 
C     1.4074628   -0.4847324    2.2736257 
C     0.3664664   -1.5066925    2.3212483 
C     3.3429792    0.0610649    0.8320718 
C     2.7119873   -0.8429816    1.8017795 
C     2.9631561   -0.5519859   -1.5310637 
C     3.7546459   -0.7286066   -0.3058467 
C     0.9906134   -1.8781576   -2.2513903 
C     2.3669920   -1.8285490   -1.8533304 
C     0.2537080   -3.0461260   -1.8716995 
C    -1.9354566   -1.8518353   -1.9411677 
C    -3.0935940   -1.6651501   -1.0871274 
C    -3.2802568   -2.5007090    0.0672885 
C    -1.1887170   -3.0581221   -1.7457399 
C    -1.7173625   -3.3494959    1.5604620 
C    -2.4751219   -3.6029939    0.3003979 
C    -1.5280796   -3.9669222   -0.6679107 
C     0.6869599   -2.8552203    1.8311978 
C     0.7876315   -3.9026255   -0.8088600 
C    -0.3756604   -3.7124006    1.3546701 
C    -0.2872025   -4.2787992    0.0161796 
C     3.0030600   -2.1591123    1.3485530 
C     3.7054200   -2.0681370    0.0568325 
C     2.9052730   -2.7854018   -0.8954056 
C     1.9585647   -3.0958312    1.2237179 
C     1.9937316   -3.5952807   -0.1911814 
