60 

C    -0.5389481   -4.0662063    1.6808784 
C     0.3592087   -4.2238804    0.5761196 
C     1.5486787   -3.4763529    0.8200622 
C     0.0001705   -3.0427126    2.5173306 
C     1.2994311   -2.6928874    2.0337668 
C    -0.9391831   -1.9468136    2.5562604 
C    -1.7562432   -3.5495167    1.1240834 
C    -2.0903542   -2.2932098    1.7434723 
C    -0.3562181   -4.0082790   -0.6785189 
C    -1.7239924   -3.6246237   -0.3163459 
C     0.2877620   -3.3213952   -1.7114012 
C     2.2666870   -2.8784861   -0.2547483 
C     1.6437169   -2.8432119   -1.5528442 
C     3.1210754   -1.7870327    0.0983945 
C     1.7913880   -1.3569135    2.1653817 
C     2.8734152   -1.0155838    1.3313611 
C    -0.5224052   -0.5886600    2.6707816 
C     0.8932723   -0.2760651    2.6211109 
C    -1.5153841    0.4244199    2.3456191 
C    -2.8029996   -1.2962057    1.0274087 
C    -2.6505830    0.0922790    1.4660584 
C    -2.3862948   -2.6285675   -1.0301264 
C    -3.0863457   -1.5672429   -0.3499182 
C    -0.4377460   -2.3109164   -2.4901480 
C    -1.7587858   -2.0122741   -2.2019000 
C     1.7642270   -1.6381887   -2.3482593 
C     0.4743865   -1.2378662   -2.8356907 
C     3.4947649   -0.8391402   -0.8643455 
C     2.7123620   -0.6550742   -2.0466323 
C     3.2335541    0.3711335    1.1073262 
C     3.6593354    0.4614163   -0.2423288 
C     1.3047345    1.1039228    2.4853217 
C     2.4970976    1.4395804    1.6957547 
C    -1.1048984    1.7657966    2.4627239 
C     0.2859032    2.1018594    2.6179993 
C    -1.7681515    2.8481594    1.7164748 
C    -3.1805080    1.1174187    0.6439325 
C    -2.7275064    2.4925985    0.7401198 
C    -3.1534287   -0.4470667   -1.2548230 
C    -2.2140264   -0.6548333   -2.3286795 
C    -3.3879061    0.8292755   -0.7714005 
C     0.0796291    0.1357469   -2.8769544 
C    -1.3367332    0.4205449   -2.7160135 
C     2.3721838    0.7497558   -2.1705695 
C     3.1028519    1.4421967   -1.0981300 
C     1.0682911    1.1739992   -2.5266333 
C     2.4739113    2.6586275    0.9291085 
C     2.5941930    2.5776143   -0.5064910 
C     0.4516521    3.4234791    2.0520836 
C    -0.8153859    3.8368226    1.4219909 
C     1.4812259    3.6550412    1.1671925 
C     0.6116458    2.5086255   -2.0482082 
C     1.4396494    3.2571307   -1.1056411 
C    -0.5332273    4.1905617    0.0472675 
C     0.8795385    4.0862342   -0.1203157 
C    -2.5558141    3.0023717   -0.5803554 
C    -2.8618018    1.9276001   -1.5047075 
C    -1.7437183    1.7418398   -2.3478944 
C    -1.3495494    3.6476022   -0.9702013 
C    -0.7678039    2.7955527   -2.0151590 
