60 

C    -2.0701925   -4.2174479    0.2723573 
C    -1.1474950   -4.5026905   -0.8260838 
C     0.0813072   -4.8863695   -0.2573828 
C    -1.2510924   -4.0479284    1.4805139 
C     0.0397977   -4.4923447    1.2056432 
C    -1.4338265   -2.7067167    1.9815013 
C    -2.7061967   -3.0089239    0.0344481 
C    -2.4818296   -2.1162179    1.1716853 
C    -1.1475542   -3.3455712   -1.7170507 
C    -2.1945805   -2.4778270   -1.2332768 
C     0.0676217   -2.7337110   -2.1996336 
C     1.2695647   -4.4109324   -0.7812838 
C     1.3048653   -3.3964344   -1.8270850 
C     1.1837302   -3.6831412    1.4734444 
C     2.0705288   -3.8767448    0.3396238 
C    -0.3289275   -1.8639851    2.3070032 
C     1.0327563   -2.3415531    2.0244896 
C    -0.5936980   -0.4314941    2.3798315 
C    -2.5846033   -0.7538067    0.9903804 
C    -1.8225936    0.1294745    1.8267542 
C    -2.1785563   -1.0996148   -1.4377117 
C    -2.7954837   -0.2810689   -0.3926236 
C     0.0762837   -1.2633909   -2.4088626 
C    -1.1288626   -0.4836392   -2.2108988 
C     1.2975294   -0.4950013   -2.2574015 
C     2.4301522   -2.5730085   -1.5310572 
C     2.8428982   -2.8470068   -0.1372666 
C     2.4137976   -1.1848513   -1.6870343 
C     2.0053223   -1.3251956    1.6542690 
C     2.8924153   -1.6010710    0.5457330 
C     2.9605658   -0.5913459   -0.4655974 
C     0.4922965    0.4920683    2.5117366 
C     1.7713149    0.0731011    1.9508394 
C     0.1993522    1.8901414    2.6250718 
C    -2.0250782    1.5588469    1.6658503 
C    -1.0929949    2.4552692    2.2201211 
C    -2.8791137    1.0559850   -0.6029248 
C    -2.7673188    2.0169709    0.5049425 
C    -1.1307410    0.9642371   -2.3377651 
C    -2.2400418    1.6675021   -1.7541530 
C     1.3002151    0.9577014   -2.1287869 
C     0.1100805    1.7131131   -2.4640003 
C     2.7771292    0.7391845   -0.1740688 
C     2.4775371    1.0914558    1.2044835 
C     2.2509505    1.5831271   -1.2248638 
C     1.1744952    2.8568403    2.3455497 
C     2.2596853    2.4642570    1.4729302 
C    -0.8771079    3.8035008    1.6959485 
C     0.5389155    4.0551142    1.8109882 
C    -2.5170309    3.2753415   -0.0427255 
C    -2.2057694    3.0595952   -1.4869666 
C    -1.5565483    4.1966892    0.4993934 
C     0.1061888    3.1455959   -2.2588422 
C    -1.0983310    3.8190696   -1.7965002 
C    -0.7641615    4.6656444   -0.6298640 
C     2.1682101    2.9694173   -0.9235293 
C     2.3362515    3.4226324    0.4345010 
C     1.2847873    4.4388643    0.6735856 
C     1.1722127    3.7624677   -1.5549963 
C     0.6309709    4.7158268   -0.5533830 
