60 

C     0.5502460   -4.5276658   -0.2327022 
C     1.5791729   -3.8361483   -0.9170650 
C     2.3484132   -3.0615562    0.0192671 
C     0.5171517   -3.9930074    1.1070540 
C     1.6300138   -3.1283259    1.2959007 
C    -0.7905313   -3.4952710    1.4349877 
C    -0.7028712   -4.1182711   -0.8110392 
C    -1.6061180   -3.7268872    0.2342635 
C     0.9501004   -3.0692828   -1.9874977 
C    -0.4979584   -3.2178414   -1.9088691 
C     1.4770402   -1.8440814   -2.3619179 
C     2.9624301   -1.8363034   -0.3907045 
C     2.6082620   -1.2825447   -1.6854298 
C     3.2649832   -0.9165637    0.6323051 
C     1.5247443   -1.9637511    2.1093712 
C     2.5842466   -1.0332403    1.9282141 
C    -0.9520030   -2.2716166    2.1674566 
C     0.2131045   -1.4591590    2.5266941 
C    -2.1975409   -1.5890933    1.9966518 
C    -2.6157501   -2.8464758   -0.0960714 
C    -3.0920865   -1.9839418    0.9384934 
C    -1.3691771   -2.0811332   -2.1059950 
C    -2.5445155   -2.0436385   -1.3108445 
C     0.6029260   -0.7431240   -2.7607681 
C    -0.8015108   -0.7876519   -2.5673104 
C     2.5607593    0.1362113   -1.8780052 
C     1.3451346    0.4624309   -2.5964142 
C     3.4881049    0.4932783    0.3596865 
C     3.0914214    1.0493629   -0.9213654 
C     2.4598739    0.2602814    2.4314209 
C     3.1311070    1.1999804    1.5299536 
C     0.0452646   -0.0147648    2.7543892 
C     1.2076183    0.8103230    2.7640919 
C    -2.3287953   -0.1562082    2.1779223 
C    -1.2211759    0.6700435    2.4907382 
C    -3.6242323   -0.8106741    0.3518140 
C    -3.1793551   -0.7764122   -1.0148704 
C    -3.3219044    0.2897802    1.2170381 
C    -1.4891052    0.4914663   -2.3458173 
C    -2.7245910    0.4546947   -1.5671355 
C     0.7200777    1.7268942   -2.5046083 
C    -0.7490042    1.7602001   -2.4624897 
C     2.5779036    2.3687681   -0.9531551 
C     1.5030165    2.7530955   -1.8715894 
C     2.4233225    2.4081070    1.5091068 
C     1.1943388    2.2092696    2.2809907 
C     2.3629041    3.1200698    0.2865666 
C    -1.2550053    2.0950216    2.0667413 
C     0.0061645    2.8701032    1.9342178 
C    -3.2131277    1.5240109    0.6573136 
C    -3.0913983    1.6275788   -0.8138576 
C    -2.3386296    2.5121788    1.2417566 
C    -1.3466465    2.9695790   -1.9429227 
C    -2.4749278    2.8377511   -1.0716857 
C    -2.1434268    3.4976787    0.2107437 
C     0.8423470    3.8737721   -1.3004778 
C     1.2888000    3.9954456    0.1037060 
C     0.1253958    3.9435134    0.9300492 
C    -0.5312493    4.0021770   -1.3597937 
C    -0.9837515    4.2015678    0.0514968 
