60 

C    -1.1616880    3.6478034   -1.5247080 
C    -1.3141930    4.0209841   -0.1757266 
C    -2.4045407    3.2360860    0.3941350 
C    -2.1303345    2.6001937   -1.7870841 
C    -2.9100065    2.3431205   -0.6035153 
C    -1.4785109    1.5259210   -2.4321973 
C     0.1164938    3.1901692   -2.0018318 
C    -0.0749539    1.8519566   -2.6004459 
C     1.2488180    3.4332262   -1.2414874 
C    -0.1960935    3.9800607    0.7184352 
C     1.0888771    3.8805466    0.1550374 
C    -1.9336837    2.7022557    1.6213745 
C    -0.5409612    3.0958648    1.8307400 
C    -2.3433437    1.4247189    1.9897669 
C    -3.2383014    0.9955722   -0.2778806 
C    -3.1559866    0.6261091    1.1065337 
C    -1.9043119    0.1827643   -2.2397201 
C    -2.9353372   -0.0624728   -1.2436472 
C    -0.9615301   -0.8604854   -2.6080534 
C     0.9074045    0.8456205   -2.5673126 
C     0.4676317   -0.5583285   -2.6548931 
C     2.3427198    2.4671375   -1.2786240 
C     2.2102511    1.1959517   -1.9720547 
C     2.0790278    3.2050768    0.8986360 
C     2.9742543    2.4996118   -0.0146056 
C     0.3919157    2.1467122    2.3556442 
C     1.7596588    2.2965107    1.9392292 
C    -1.4437721    0.5234679    2.6951515 
C    -0.0543748    0.8011360    2.7712269 
C    -3.0025003   -0.7488074    1.5146370 
C    -1.9484976   -0.8071968    2.5126042 
C    -3.1315281   -1.4104659   -0.8282997 
C    -3.1338485   -1.7740464    0.5989837 
C    -1.3856101   -2.2098599   -2.3840379 
C    -2.5082802   -2.4512878   -1.5219058 
C    -0.4339338   -3.2342854   -2.1104377 
C     1.4112860   -1.6111196   -2.3100396 
C     0.9164504   -2.9295163   -1.9482705 
C     3.0396977    0.1488149   -1.5234114 
C     2.6721153   -1.2495449   -1.7410677 
C     3.4334118    1.3222196    0.6026915 
C     2.6360988    1.1302511    1.8102031 
C     3.6956120    0.2300479   -0.2264142 
C     0.8647958   -0.3483353    2.7228323 
C     2.2258393   -0.1677509    2.2020365 
C    -1.0908180   -1.9001898    2.5461705 
C     0.3167846   -1.6636588    2.6724945 
C    -2.3869843   -3.0175325    0.7527369 
C    -2.1396760   -3.5162932   -0.5685989 
C    -0.8972738   -4.0090062   -0.9328782 
C    -1.3289710   -3.0656897    1.6931191 
C     1.3668202   -3.5932240   -0.7049253 
C     0.9758082   -2.7714446    1.9673844 
C     0.1858508   -4.0623768   -0.0013854 
C    -0.0382143   -3.6055505    1.3263737 
C     3.1717187   -2.0031065   -0.6444437 
C     3.6192153   -1.0528113    0.3528063 
C     2.8775930   -1.2828813    1.5416177 
C     2.4055371   -3.0134513   -0.0039024 
C     2.2063720   -2.5691917    1.3812040 
