60 

C    -1.3234973   -4.5140823   -0.6531388 
C    -0.1105999   -4.3466113   -1.4562096 
C     0.9898766   -4.5459123   -0.5955009 
C    -0.9138711   -4.4041165    0.7543334 
C     0.4718002   -4.4550859    0.8308133 
C    -1.6006105   -3.2919936    1.3747093 
C    -2.1571139   -3.4306544   -0.8937263 
C    -2.4996824   -2.7859740    0.3699841 
C    -0.2041750   -3.0936876   -2.1787619 
C    -1.5194342   -2.5553308   -1.8827342 
C     0.8914571   -2.1566765   -2.2435914 
C     2.0744009   -3.7002062   -0.6832763 
C     2.0946226   -2.5685615   -1.5606244 
C     1.2279545   -3.4382451    1.5112802 
C     2.3572643   -3.1674133    0.6730762 
C    -0.8892912   -2.3233251    2.1708014 
C     0.5701472   -2.3166101    2.1859615 
C    -1.5381108   -1.0735306    2.3409674 
C    -2.9096446   -1.4566617    0.3508279 
C    -2.6834753   -0.7064283    1.5380276 
C    -1.7797270   -1.1843416   -1.8773468 
C    -2.7828068   -0.7144653   -0.9136153 
C     0.6072259   -0.7112341   -2.3672685 
C    -0.7587621   -0.2360635   -2.3263457 
C     1.6394016    0.2747925   -2.0634967 
C     2.8130557   -1.5409224   -0.8666935 
C     2.8709518   -1.8970733    0.5627084 
C     2.7336164   -0.2090628   -1.2232556 
C     1.2530248   -1.0284566    2.2634976 
C     2.4895278   -0.8913777    1.5131708 
C    -0.8636819    0.1533025    2.6517227 
C     0.5395667    0.2385702    2.5652398 
C    -2.8344873    0.7018661    1.5549551 
C    -1.7144839    1.2783993    2.2615323 
C    -3.0443368    0.6311098   -0.8841647 
C    -3.2989736    1.3367754    0.3876920 
C    -1.0574508    1.1848935   -2.2930097 
C    -2.3420439    1.5555279   -1.7599713 
C     1.3865338    1.7081396   -2.0971551 
C     0.0140829    2.1947971   -2.3021891 
C     2.3424655    2.5774733   -1.4153681 
C     3.2801510    0.6661439   -0.2229749 
C     2.9456379    0.3769770    1.1849230 
C     3.2117047    2.0164038   -0.4183121 
C     1.1129922    1.5755741    2.3019538 
C     2.4313094    1.5873845    1.7542186 
C     2.8632939    2.6422426    0.8842048 
C    -1.2115054    2.5635433    1.9468347 
C     0.2500017    2.7608559    2.0307632 
C    -2.9826632    2.6768275    0.2022569 
C    -2.5528794    2.8491679   -1.2154361 
C    -2.0190950    3.3527674    1.0081750 
C    -0.3133048    3.5442462   -1.8867354 
C    -1.5836980    3.8182388   -1.2816859 
C    -1.3536529    4.2806690    0.1235831 
C     1.8934970    3.8186282   -0.8479274 
C     2.0814898    3.7309082    0.6459924 
C     0.7972543    3.8622595    1.2709479 
C     0.6289913    4.2700146   -1.0669068 
C    -0.0202405    4.5156046    0.2622684 
