60 

C    -0.8126570   -5.2637201    0.1536003 
C     0.5193329   -5.4603716   -0.1544906 
C     1.3166230   -5.0015935    0.9861999 
C    -0.9312456   -4.5469145    1.4540269 
C     0.3814231   -4.3688415    1.9517504 
C    -1.7787093   -3.4210871    1.2479498 
C    -1.4743332   -4.4474359   -0.8614179 
C    -2.2092438   -3.4596308   -0.1750072 
C     0.7703636   -4.5682659   -1.3144773 
C    -0.4745848   -3.9883015   -1.8103039 
C     2.0711564   -3.9267076    0.5101419 
C     1.7685056   -3.6581022   -0.9251276 
C     0.8013558   -3.0122444    2.2269209 
C     1.9690024   -2.7764021    1.4019714 
C    -1.4615618   -2.1296580    1.7846438 
C    -0.1173026   -1.9203960    2.2999904 
C    -2.1204662   -0.9609358    1.2199886 
C    -2.4607060   -2.2518983   -0.8279096 
C    -2.6981551   -1.0680110   -0.0718443 
C    -0.4994030   -2.6274507   -2.2585158 
C    -1.6842610   -1.8669729   -1.9853993 
C     1.7833391   -2.3107118   -1.3824084 
C     0.7150423   -1.7997234   -2.2260469 
C     2.2786331   -1.5133756    0.9305573 
C     2.4370956   -1.3475267   -0.5193055 
C     0.4408080   -0.5749382    2.2268435 
C     1.7230776   -0.3675309    1.6291030 
C    -1.7230776    0.3675309    1.6291030 
C    -0.4408080    0.5749382    2.2268435 
C    -2.2786331    1.5133756    0.9305573 
C    -2.5232007    0.0527141   -0.9695712 
C    -1.7326167   -0.4323027   -2.0707982 
C    -2.4370956    1.3475267   -0.5193055 
C     0.6379940   -0.3651918   -2.4710645 
C    -0.6379940    0.3651918   -2.4710645 
C     2.5232007   -0.0527141   -0.9695712 
C     1.7326167    0.4323027   -2.0707982 
C     2.1204662    0.9609358    1.2199886 
C     2.6981551    1.0680110   -0.0718443 
C     0.1173026    1.9203960    2.2999904 
C     1.4615618    2.1296580    1.7846438 
C    -1.9690024    2.7764021    1.4019714 
C    -0.8013558    3.0122444    2.2269209 
C    -2.0711564    3.9267076    0.5101419 
C    -1.7833391    2.3107118   -1.3824084 
C    -0.7150423    1.7997234   -2.2260469 
C    -1.7685056    3.6581022   -0.9251276 
C     1.6842610    1.8669729   -1.9853993 
C     2.4607060    2.2518983   -0.8279096 
C     0.4994030    2.6274507   -2.2585158 
C     1.7787093    3.4210871    1.2479498 
C     2.2092438    3.4596308   -0.1750072 
C    -0.3814231    4.3688415    1.9517504 
C    -1.3166230    5.0015935    0.9861999 
C     0.9312456    4.5469145    1.4540269 
C    -0.7703636    4.5682659   -1.3144773 
C     0.4745848    3.9883015   -1.8103039 
C     1.4743332    4.4474359   -0.8614179 
C    -0.5193329    5.4603716   -0.1544906 
C     0.8126570    5.2637201    0.1536003 
