60 

C    -1.3364586   -4.3309372   -0.0147090 
C     0.0411082   -4.4278647   -0.2951290 
C     0.7564283   -3.9760107    0.8851910 
C    -1.5213847   -3.7257625    1.2605021 
C    -0.2184529   -3.4290583    1.8286736 
C    -2.4820219   -2.6706504    1.1107824 
C    -1.9485815   -3.4369678   -0.9987528 
C    -2.7493375   -2.4746067   -0.3319663 
C     0.2901278   -3.7187584   -1.5464472 
C    -0.9410019   -3.0259745   -1.9273054 
C     1.4999672   -3.0636188   -1.7173528 
C     1.9703827   -3.3203555    0.7098741 
C     2.4428549   -3.0830825   -0.6308445 
C     2.3054065   -2.1362838    1.5036215 
C     0.0212073   -2.1590545    2.4483212 
C     1.3360720   -1.4908138    2.3180308 
C    -2.3390153   -1.5445696    1.8927388 
C    -1.1181527   -1.2998042    2.6312407 
C    -2.8439276   -0.2748836    1.4324001 
C    -2.8687051   -1.1745148   -0.8616752 
C    -3.2022922   -0.0811441    0.0686023 
C    -0.9197588   -1.6756914   -2.3805021 
C    -2.0476141   -0.8404538   -2.0230870 
C     1.5504176   -1.7180662   -2.2926554 
C     0.3772078   -1.0111102   -2.6263484 
C     3.1612058   -1.8514130   -0.6450228 
C     3.2071482   -1.3353272    0.6925449 
C     2.6702278   -1.0090824   -1.6825019 
C     3.2572512    0.0245262    0.8469905 
C     1.4544129   -0.0326123    2.5314585 
C     2.5242675    0.6693376    1.9028413 
C    -1.0029946    0.1152430    2.7602829 
C    -2.1437334    0.7585829    2.1315029 
C     0.2664189    0.7743487    2.8154719 
C    -2.0875045    2.0901191    1.6427820 
C    -3.1836932    1.2529464   -0.4064471 
C    -2.7166655    2.3699562    0.3966209 
C    -1.9910175    0.5191321   -2.4083866 
C    -2.7670482    1.4933639   -1.7521858 
C     0.4655769    0.4570523   -2.7136269 
C    -0.7414407    1.1656178   -2.8249131 
C     2.6839466    0.4037969   -1.5287032 
C     3.2348252    0.9156478   -0.3115239 
C     1.6559173    1.1834839   -2.2106315 
C     2.4503634    2.0685076    1.5660618 
C     2.8811058    2.2058065    0.1592390 
C     0.2543711    2.1725472    2.5711453 
C    -0.9322327    2.8637761    2.0345951 
C     1.4126586    2.8668913    2.0363239 
C    -0.5028994    3.9566027    1.2602439 
C     0.9523050    3.9733527    1.2433198 
C    -2.1100716    3.3575458   -0.5066659 
C    -2.0783679    2.7610138   -1.8002684 
C    -0.8402327    2.5791441   -2.4922116 
C    -1.0084749    4.1377451   -0.0961880 
C     1.5450822    2.5537737   -1.8780013 
C     2.2107193    3.0932312   -0.6896112 
C     1.3353016    4.0627297   -0.1045313 
C     0.2879830    3.2816410   -2.0385642 
C     0.1408128    4.1910099   -0.9446434 
