60 

C     1.3960338   -4.4432950    0.5998304 
C     0.6023980   -3.9458649    1.7313955 
C    -0.7309567   -4.0033391    1.3472194 
C     0.4939290   -4.4608333   -0.5756173 
C    -0.8073365   -4.3661553   -0.1053037 
C     0.9529225   -3.4747377   -1.5451688 
C     2.3741485   -3.5020805    0.3489460 
C     2.2326126   -3.0302404   -1.0372075 
C     1.1214439   -2.6572473    2.1494748 
C     2.3331073   -2.4579110    1.3791356 
C     0.2565954   -1.5266261    2.3927956 
C    -1.6198201   -2.9218189    1.5642761 
C    -1.1806550   -1.6873226    2.1533693 
C    -1.7359290   -3.4892708   -0.7089835 
C    -2.4618778   -2.8533028    0.3831903 
C     0.0606484   -2.5055426   -2.1293801 
C    -1.3520504   -2.6272935   -1.8110313 
C     0.5775493   -1.1458931   -2.4722451 
C     2.6725987   -1.7726348   -1.3160602 
C     1.9239822   -0.8768089   -2.1688694 
C     2.7936087   -1.1788020    1.0865084 
C     3.2562057   -0.9439559   -0.2662574 
C     0.8316599   -0.1846781    2.3367303 
C     2.1860308   -0.0478770    1.7993658 
C    -0.0068578    1.0086403    2.4160952 
C    -1.9927790   -0.5018234    1.9303748 
C    -1.4403092    0.8256500    2.2077957 
C    -3.2234977   -1.7415912    0.1471803 
C    -3.1115509   -0.6078529    1.0319263 
C    -2.1950297   -1.4995073   -2.0465581 
C    -3.2950474   -1.2407273   -1.2029163 
C    -0.3013846    0.0442846   -2.5881359 
C    -1.6819588   -0.1809574   -2.4760244 
C     0.1929951    1.4361517   -2.3768236 
C     2.3909250    0.4593094   -1.9002067 
C     3.2861282    0.3679237   -0.7449012 
C     1.6194432    1.6195471   -2.1022480 
C     2.6645239    1.2236836    1.4718956 
C     3.3269517    1.4241596    0.1751014 
C     0.5965907    2.3571885    2.2564051 
C     1.9607381    2.4364791    1.8023034 
C    -0.2458770    3.4845142    1.9019723 
C    -2.2005942    1.9622799    1.7615019 
C    -1.6221225    3.2292666    1.6436449 
C    -3.5246948    0.5412398    0.2488376 
C    -3.5010839    0.1787135   -1.1274451 
C    -2.5603888    0.8491638   -1.9663275 
C    -3.0909878    1.7933781    0.6031797 
C    -0.7221372    2.5004441   -1.9771163 
C    -1.9584526    3.7393134    0.2973126 
C    -2.0945296    2.1452972   -1.6180600 
C    -2.6544360    2.7140788   -0.4080361 
C     0.1728944    4.4157804    0.8686662 
C    -0.1786493    3.7235959   -1.3839487 
C    -0.8359170    4.3182447   -0.2212155 
C     2.1063421    2.8177649   -1.4354186 
C     2.9717544    2.6858557   -0.2756933 
C     2.3575718    3.4259409    0.8267497 
C     1.2037939    3.8590064   -1.1531398 
C     1.4107842    4.2890952    0.2771590 
