60 

C     1.8665324   -4.1518222    0.8123698 
C     0.4845944   -4.4318813    0.8983897 
C    -0.0881760   -4.4771694   -0.4249952 
C     2.1149605   -3.7434049   -0.5678263 
C     0.9418536   -4.0023661   -1.3352247 
C     2.6334165   -2.4099366   -0.5648384 
C     2.0964793   -2.9785414    1.6229324 
C     2.7205038   -1.9779978    0.8294955 
C    -0.1092974   -3.5244572    1.8910279 
C     0.9232360   -2.5860750    2.3469076 
C    -1.3629408   -3.0109174    1.6490025 
C    -1.2777606   -3.7615393   -0.7147455 
C    -2.0183000   -3.1798689    0.3374117 
C     0.3828150   -2.9807701   -2.1602980 
C    -1.0392670   -2.9024787   -1.8801807 
C     2.2497266   -1.4383146   -1.5525809 
C     1.1014082   -1.7621022   -2.4075052 
C     2.5665162   -0.0695210   -1.2702956 
C     2.5706095   -0.6305370    1.1544540 
C     2.9133503    0.2963927    0.0971033 
C     0.6369276   -1.1987109    2.5661446 
C     1.6229848   -0.2128738    2.1605114 
C    -1.7247369   -1.6970577    2.1493389 
C    -0.7530729   -0.7580077    2.6093275 
C    -2.8207237   -2.0229053    0.1182384 
C    -2.8173570   -1.2425191    1.3472003 
C    -1.7759256   -1.7093872   -2.0939516 
C    -2.8201265   -1.3148851   -1.1376949 
C     0.3304922   -0.6730313   -2.8717358 
C    -1.0982363   -0.6628181   -2.7829140 
C     1.9887720    1.0099018   -2.0844581 
C     0.7960719    0.6893921   -2.7782398 
C     2.1481738    2.3614564   -1.6996333 
C     2.9936079    1.6295989    0.4740783 
C     2.9256193    2.6794434   -0.5145571 
C     1.3680322    1.2066445    2.3007957 
C     2.3161174    2.0925790    1.6896530 
C    -1.0740907    0.6775507    2.5512079 
C     0.0065720    1.6739425    2.5435279 
C    -3.1718351    0.0931439    1.3481062 
C    -2.3532525    1.0596737    2.0563265 
C    -3.2578312    0.0405852   -1.1203842 
C    -3.6026373    0.6692762    0.1168520 
C    -1.5089672    0.7246263   -2.6872218 
C    -0.3350699    1.5789660   -2.7252458 
C    -2.5985972    1.0756564   -1.9165812 
C     1.0483906    3.3128134   -1.7476340 
C    -0.2650213    2.8377471   -2.0648826 
C     2.4369447    3.8453569    0.0807802 
C     2.0040911    3.4679364    1.4473204 
C     1.2594480    4.2451373   -0.6487091 
C    -0.2996099    3.0194454    2.1343406 
C     0.6920696    3.8967736    1.6286459 
C     0.2161039    4.3754091    0.2888012 
C    -2.5099227    2.3148257    1.3375529 
C    -3.1727730    2.0347014    0.0994869 
C    -2.5287440    2.3231518   -1.1430758 
C    -1.4035148    3.1897423   -1.1785119 
C    -1.4931615    3.2350703    1.3206747 
C    -1.0754723    3.8549569    0.0659157 
