60 

C    -1.4519994   -4.1131230   -0.7726776 
C    -0.3823260   -4.2421165    0.1761425 
C    -0.7210946   -3.5269206    1.3855388 
C    -2.4654410   -3.3302545   -0.2149222 
C    -2.0774225   -3.0415051    1.1640144 
C    -2.6744853   -2.1750807   -1.0730667 
C    -0.8931291   -3.3809073   -1.9188687 
C    -1.6583708   -2.1933345   -2.1137075 
C     0.8443526   -3.9505716   -0.4875481 
C     0.5010994   -3.2790750   -1.7726731 
C     1.8621480   -3.3977529    0.2612798 
C     0.2572467   -2.6775839    2.0243380 
C     1.5923695   -2.7654550    1.5519223 
C    -0.1630619   -1.3831989    2.6229794 
C    -2.4312853   -1.8157252    1.6742607 
C    -1.5435354   -1.0609212    2.5321658 
C    -3.1312416   -0.9401585   -0.5458373 
C    -3.1997906   -0.8429693    0.8814832 
C    -2.9033147    0.2629124   -1.3227055 
C    -1.0420921   -0.9672709   -2.5019169 
C    -1.8318023    0.2371758   -2.3212819 
C     1.1815354   -2.0583093   -2.1586117 
C     0.4137908   -0.9025503   -2.5864242 
C     2.8341970   -2.5961998   -0.4141409 
C     2.4758378   -1.8548387   -1.5690653 
C     2.5165147   -1.6482952    1.6709958 
C     3.3648146   -1.6514850    0.5223294 
C     0.7762905   -0.2650051    2.7744535 
C     2.1479906   -0.3937275    2.2746430 
C     0.2491293    1.0610695    2.8963626 
C    -2.0208476    0.3010077    2.5249406 
C    -3.0602195    0.4245272    1.5016954 
C    -1.1504472    1.3433412    2.7451048 
C    -3.2082895    1.5125011   -0.6897940 
C    -3.1702816    1.5950651    0.7597381 
C    -2.6691625    2.7348211   -1.1856974 
C    -1.2059992    1.4618037   -2.6768744 
C    -1.7049397    2.7142245   -2.1995506 
C     1.0606014    0.4180529   -2.5968980 
C     0.2396574    1.5467648   -2.7469374 
C     3.0483707   -0.5085587   -1.4413190 
C     3.6854244   -0.4351251   -0.1425420 
C     2.3877003    0.6133609   -1.9842514 
C     2.8577957    0.7688211    1.8413770 
C     3.6235990    0.7389912    0.6008612 
C     0.9423577    2.2192100    2.3884088 
C     2.2457446    2.0959500    1.9008740 
C    -1.3162524    2.6191683    2.0359208 
C    -2.3676606    2.7764573    1.1084398 
C    -2.1165295    3.5073871   -0.0804875 
C    -0.0086438    3.1446789    1.7709401 
C    -0.5847302    3.5462397   -1.8053350 
C     0.6024951    2.8695996   -2.1844277 
C    -0.7887234    3.9400960   -0.4332742 
C     0.2928338    3.7816974    0.5087139 
C     2.6871972    1.8910372   -1.3670348 
C     3.3371155    1.9347453   -0.1071090 
C     2.5865339    2.8414034    0.7391747 
C     1.7305553    2.9843898   -1.3899765 
C     1.5978204    3.5115195   -0.0341418 
