60 

C     0.6673922   -0.3211776    4.2869419 
C     0.4884675   -1.5940653    3.7883055 
C    -0.9469028   -1.8225606    3.5108127 
C    -0.6673922    0.3211776    4.2869419 
C    -1.6159545   -0.5711005    3.6416293 
C    -0.4884675    1.5940653    3.7883055 
C     1.6159545    0.5711005    3.6416293 
C     0.9469028    1.8225606    3.5108127 
C     2.4388698    0.0933186    2.5496438 
C     1.2509786   -2.1157016    2.6920859 
C     2.2833946   -1.3085892    2.0997187 
C    -1.0271296   -2.5940179    2.3418371 
C     0.3370693   -2.8438867    1.8461724 
C    -2.0283755   -2.2906497    1.4121042 
C    -2.4388698   -0.0933186    2.5496438 
C    -2.7578384   -1.0503049    1.5353489 
C    -1.2509786    2.1157016    2.6920859 
C    -2.2833946    1.3085892    2.0997187 
C     1.0271296    2.5940179    2.3418371 
C    -0.3370693    2.8438867    1.8461724 
C     2.7578384    1.0503049    1.5353489 
C     2.0283755    2.2906497    1.4121042 
C     3.1205215    0.6665323    0.1838742 
C     2.6127851   -1.6423268    0.7617399 
C     3.1205215   -0.6665323   -0.1838742 
C     0.5722505   -3.0330994    0.4656785 
C     1.8361583   -2.5761525   -0.0141161 
C    -1.8361583   -2.5761525    0.0141161 
C    -0.5722505   -3.0330994   -0.4656785 
C    -3.1205215   -0.6665323    0.1838742 
C    -2.6127851   -1.6423268   -0.7617399 
C    -2.6127851    1.6423268    0.7617399 
C    -3.1205215    0.6665323   -0.1838742 
C    -0.5722505    3.0330994    0.4656785 
C    -1.8361583    2.5761525   -0.0141161 
C     1.8361583    2.5761525    0.0141161 
C     2.6127851    1.6423268   -0.7617399 
C     0.5722505    3.0330994   -0.4656785 
C     2.2833946    1.3085892   -2.0997187 
C     2.7578384   -1.0503049   -1.5353489 
C     2.0283755   -2.2906497   -1.4121042 
C     2.4388698   -0.0933186   -2.5496438 
C    -0.3370693   -2.8438867   -1.8461724 
C     1.0271296   -2.5940179   -2.3418371 
C    -2.2833946   -1.3085892   -2.0997187 
C    -1.2509786   -2.1157016   -2.6920859 
C    -2.7578384    1.0503049   -1.5353489 
C    -2.0283755    2.2906497   -1.4121042 
C    -2.4388698    0.0933186   -2.5496438 
C     0.3370693    2.8438867   -1.8461724 
C     1.2509786    2.1157016   -2.6920859 
C    -1.0271296    2.5940179   -2.3418371 
C    -1.6159545    0.5711005   -3.6416293 
C     0.4884675    1.5940653   -3.7883055 
C    -0.9469028    1.8225606   -3.5108127 
C     1.6159545   -0.5711005   -3.6416293 
C     0.9469028   -1.8225606   -3.5108127 
C    -0.4884675   -1.5940653   -3.7883055 
C     0.6673922    0.3211776   -4.2869419 
C    -0.6673922   -0.3211776   -4.2869419 
