60 

C    -0.7267536    4.2812767    1.8439987 
C    -0.5702653    4.6792694    0.4515951 
C    -1.6565232    4.1626943   -0.2709612 
C    -1.8551635    3.3662588    1.9300789 
C    -2.4609488    3.3280545    0.6618453 
C    -1.3975236    2.1011454    2.4666670 
C     0.4186978    3.5251199    2.1523115 
C     0.0341567    2.2164442    2.6483874 
C     0.7724078    4.3387193   -0.0006224 
C     1.4049563    3.5942517    1.0856871 
C     0.9550587    3.8648280   -1.3145665 
C    -1.4549514    3.3917165   -1.4631265 
C    -0.1899320    3.3360415   -2.0662249 
C    -2.7384600    2.0910804    0.0242014 
C    -2.1884673    2.1439798   -1.3214453 
C    -1.8971054    0.8650351    1.9825848 
C    -2.6433901    0.8558246    0.7420713 
C    -1.1449753   -0.3327389    2.2964902 
C     0.8733346    1.1061606    2.4740193 
C     0.2602663   -0.2078999    2.5826218 
C     2.2509243    2.4766771    0.8493435 
C     2.0924663    1.2657278    1.6792855 
C     2.0431619    2.9773670   -1.5523610 
C     2.7053651    2.2911231   -0.5076427 
C     0.2391341    2.0968323   -2.7100035 
C     1.6397104    1.9573984   -2.5102076 
C    -1.7925395    0.9512097   -1.9563708 
C    -0.5292254    0.9017597   -2.6809656 
C    -2.6776406   -0.3607736   -0.0197448 
C    -2.3287604   -0.2741910   -1.4220314 
C    -1.6887941   -1.6083869    1.8713499 
C    -2.5215169   -1.6234524    0.6694056 
C    -0.9490690   -2.7814477    2.2046570 
C     1.0837332   -1.3806431    2.4333367 
C     0.4632901   -2.6543221    2.4064971 
C     2.7059349    0.0695577    1.2544455 
C     2.3055089   -1.2190387    1.7113189 
C     3.0162060    0.9526481   -1.0057366 
C     2.2675353    0.7180076   -2.2288821 
C     3.1375550   -0.0912631   -0.1353073 
C     0.1691336   -0.3890909   -2.7783639 
C     1.5819836   -0.5071018   -2.4278685 
C    -1.9373867   -1.4612782   -2.0769713 
C    -0.6053310   -1.5465015   -2.6543601 
C    -2.5383943   -2.8274024   -0.1217033 
C    -2.2221338   -2.7012220   -1.5026397 
C    -1.1614092   -4.0488292    1.5008923 
C    -1.8975381   -4.0371170    0.3280918 
C     1.1035194   -3.7794722    1.7095337 
C     0.1399947   -4.6666386    1.2400477 
C     2.6029148   -2.1985381    0.6608323 
C     2.8174395   -1.4347927   -0.5421357 
C     2.0097088   -1.6969972   -1.6862663 
C     1.9917086   -3.4260611    0.6147747 
C    -0.0607946   -2.8707213   -2.3538911 
C    -1.1431817   -3.6528477   -1.8383336 
C    -0.9941477   -4.5343033   -0.7760007 
C     0.2869165   -4.7537813   -0.2173049 
C     1.2220005   -2.9389227   -1.7057542 
C     1.3775987   -3.9004324   -0.6285782 
