60 

C    -2.2603311   -3.5858925    0.9715436 
C    -2.4556264   -3.3283952   -0.4606551 
C    -1.2040410   -3.4967653   -1.1253875 
C    -0.9144559   -3.8687687    1.2019801 
C    -0.2802964   -4.0013523   -0.0954487 
C    -0.3715858   -2.8626293    2.1243935 
C    -2.6175828   -2.3872319    1.6723043 
C    -1.4452895   -1.9226259    2.3848442 
C    -3.1666768   -2.1066229   -0.5819273 
C    -3.2589509   -1.5013142    0.7683067 
C    -2.8273691   -1.2468763   -1.6241938 
C    -0.7132957   -2.4913359   -2.0478523 
C    -1.6024636   -1.4365639   -2.3656685 
C     0.7255356   -2.2151193   -2.1708153 
C     1.0351069   -3.6808102   -0.1889635 
C     1.5908618   -3.0363135   -1.3839363 
C     0.9467066   -2.4055309    1.9827860 
C     1.7414899   -3.0951485    0.9686739 
C     1.2867471   -1.0113040    2.2976922 
C    -1.1816465   -0.5467106    2.4900324 
C     0.2089919   -0.0848359    2.5970633 
C    -3.1330606   -0.1075668    0.9461486 
C    -2.2107606    0.3641646    1.9729922 
C    -3.0680167    0.1634207   -1.4918469 
C    -3.3705779    0.7549264   -0.2197620 
C    -1.1278744   -0.1130411   -2.7317635 
C    -2.1370722    0.8372010   -2.3550968 
C     1.2019594   -0.8522544   -2.5288783 
C     0.2458842    0.2356556   -2.7113894 
C     2.5394189   -0.4733406   -2.1851578 
C     2.8700760   -2.5813814   -1.0062703 
C     2.9083810   -2.5377058    0.4813730 
C     3.3624124   -1.3715738   -1.4435708 
C     2.5888929   -0.4833926    1.8364599 
C     3.3909567   -1.2628658    0.8986487 
C     3.8944050   -0.6294755   -0.2837305 
C     2.7759050    0.9113518    1.7779159 
C     0.4587998    1.3597047    2.5889579 
C     1.7650938    1.8396255    2.2522885 
C    -1.9565303    1.7494695    2.0354764 
C    -0.6273783    2.2633137    2.3747944 
C    -3.1523798    2.1502452   -0.0867107 
C    -2.5919648    2.6478653    1.1462679 
C    -1.8134364    2.1806508   -2.1357421 
C    -2.5093356    2.8922296   -1.1303477 
C     0.6064094    1.6444813   -2.3916533 
C    -0.4196603    2.5958659   -2.1765105 
C     2.8354013    0.8710290   -1.6937423 
C     3.6886075    0.7292296   -0.5072337 
C     3.4194928    1.5340604    0.6154364 
C     1.9132553    1.9320201   -1.7845306 
C     1.8953804    3.0469739    1.5076171 
C     2.7839800    2.7556156    0.3920471 
C     2.0316596    2.9938342   -0.8008658 
C    -0.4599107    3.5075741    1.6493413 
C    -1.6515876    3.7165819    0.8667924 
C    -1.5595949    3.8217899   -0.5259387 
C    -0.2814460    3.6690983   -1.1869359 
C     0.7816936    3.7752885    1.0501234 
C     0.8766939    3.7814775   -0.4297755 
