60 

C    -2.9977327   -3.2296652    0.0755196 
C    -1.7927694   -3.7244469   -0.5140007 
C    -0.7520494   -3.7599153    0.4561597 
C    -2.6266328   -2.7042996    1.3714700 
C    -1.2556371   -2.9829951    1.6031719 
C    -3.0078156   -1.3204741    1.4491726 
C    -3.3562351   -2.0813174   -0.6872800 
C    -3.5919011   -0.9666827    0.1704108 
C    -1.5048168   -2.9839192   -1.7361557 
C    -2.4508024   -1.8880579   -1.8137624 
C    -0.1807036   -2.7686978   -2.0866602 
C     0.6066756   -3.6638024    0.0592534 
C     0.9026246   -3.3006462   -1.2955998 
C     1.5135631   -3.2036102    1.0749620 
C    -0.3763122   -2.0260848    2.2439004 
C     0.9958253   -2.2902742    2.1179186 
C    -2.1967474   -0.3391439    2.1139249 
C    -0.8068013   -0.6521616    2.4960151 
C    -2.5564310    0.9833803    1.8392664 
C    -3.4930183    0.3373412   -0.3374125 
C    -3.3759265    1.3329106    0.6782096 
C    -2.0403627   -0.5784309   -2.1726534 
C    -2.7788489    0.5509229   -1.6007816 
C     0.2363811   -1.4685163   -2.5828221 
C    -0.6439880   -0.3626105   -2.6036030 
C     2.0765978   -2.4985818   -1.5726558 
C     1.6532094   -1.3282709   -2.3266425 
C     2.8018496   -2.7947950    0.7481571 
C     3.1071370   -2.3895291   -0.6246479 
C     1.9849668   -1.2747137    2.3474437 
C     3.1670735   -1.6797570    1.6150366 
C     0.1736369    0.4127242    2.5769072 
C     1.6045306    0.0921960    2.4487937 
C    -1.6493269    2.0919382    2.0960920 
C    -0.2576132    1.8119545    2.3794289 
C    -3.0498965    2.6450686    0.3311138 
C    -2.0477351    3.1748145    1.2824626 
C    -2.2795963    1.8483835   -1.8444672 
C    -2.5922663    2.9369478   -0.9622979 
C    -0.0441593    0.9727788   -2.5646137 
C    -0.9087783    2.0596667   -2.3212549 
C     2.2577621   -0.0549223   -2.1554769 
C     1.4131781    1.1362622   -2.3162347 
C     3.8126447   -1.1577177   -0.5554839 
C     3.8563242   -0.7448121    0.8637123 
C     3.4104592   -0.0157064   -1.2852093 
C     2.5256187    1.0932409    1.8676746 
C     3.5557343    0.6340744    0.9702726 
C     3.5428638    1.1355168   -0.3965274 
C     0.6697276    2.7911814    1.9269629 
C     2.0420107    2.4010844    1.6103155 
C    -1.0864199    3.9316661    0.5618859 
C    -1.4098462    3.7920354   -0.8414360 
C    -0.4244398    3.2964996   -1.7245209 
C     0.2601667    3.8165263    0.9691865 
C     1.8661411    2.3566521   -1.7431026 
C     2.8883309    2.3006034   -0.6863214 
C     2.4030948    3.0721764    0.4096857 
C     0.9416096    3.3954717   -1.3640599 
C     1.2658725    3.8305393   -0.0388025 
