60 

C     0.4622823    4.7908364    0.2953386 
C     1.2607392    4.5066090   -0.8520968 
C     0.3898779    3.8107657   -1.8249102 
C    -0.8721569    4.4339982    0.0375302 
C    -0.9266912    3.7799997   -1.2925754 
C    -1.3455801    3.6528337    1.1697042 
C     0.9150953    3.9273124    1.4149845 
C    -0.1858223    3.1974815    1.9472167 
C     2.2275537    3.5583459   -0.4684972 
C     2.0489558    3.2044939    0.9661693 
C     0.9782882    2.5514518   -2.1779448 
C     2.2170808    2.4656250   -1.4051054 
C     0.2116762    1.3554635   -2.3600168 
C    -1.7487034    2.6343516   -1.4756760 
C    -1.2221377    1.4192747   -2.1206307 
C    -2.3522732    2.7761105    0.9499335 
C    -2.7386963    2.4465266   -0.4466631 
C    -2.4650280    1.5410448    1.7144289 
C    -0.0797241    1.7950731    2.2876512 
C    -1.2790080    0.9420994    2.2656894 
C     2.2103958    1.8665081    1.3349710 
C     1.1971036    1.1528835    2.1171298 
C     2.7058053    1.2408162   -1.0151388 
C     2.9867280    1.0539510    0.4117672 
C     0.9119283    0.0666910   -2.2844611 
C     2.2742968    0.0606328   -1.7495419 
C     0.1855344   -1.1825612   -2.3347214 
C    -1.9480949    0.1650662   -2.0229441 
C    -1.2731043   -1.1242712   -2.2475498 
C    -3.4229113    1.2571537   -0.3791206 
C    -3.3851963    0.7354283    1.0105562 
C    -3.1403900    0.1548634   -1.2217145 
C    -3.3323774   -0.6409752    0.9836810 
C    -3.4560732   -1.0181595   -0.4394306 
C    -1.1812592   -0.5185105    2.2658650 
C    -2.3087548   -1.3184444    1.7510745 
C     1.3119950   -0.2907512    2.2716823 
C     0.1321393   -1.1493785    2.3578848 
C     3.3396374   -0.1978838    0.8326909 
C     2.5650106   -0.8732217    1.8949828 
C     2.9007174   -1.1363016   -1.3832869 
C     3.6789206   -1.1897927   -0.1436021 
C     0.8835852   -2.4451915   -1.9982117 
C     2.2318901   -2.3978563   -1.5280323 
C     0.1283695   -3.5876946   -1.5633814 
C    -1.9726118   -2.3172778   -1.8676349 
C    -3.0238824   -2.2353759   -0.8502942 
C    -1.2846409   -3.5445979   -1.5908872 
C    -2.1242414   -2.6749520    1.4012698 
C    -2.7255430   -3.2129320    0.1732492 
C    -1.8300208   -4.1471297   -0.3751159 
C     0.2805077   -2.5857908    2.0569469 
C     0.4874790   -4.2244539   -0.2752544 
C    -0.8511541   -3.3232722    1.5766589 
C    -0.7113621   -4.2874851    0.5000970 
C     2.7069610   -2.2617787    1.6628181 
C     3.4927707   -2.4647790    0.4365913 
C     2.6652221   -3.2372282   -0.4119776 
C     1.5594440   -3.0998037    1.6412123 
C     1.6394481   -3.8558404    0.3766423 
