60 

C     1.2801300    3.9799516    0.5983889 
C    -0.0096989    3.9769113    1.0791221 
C    -0.9518951    3.9957319   -0.0619331 
C     1.1788400    3.9663946   -0.8899122 
C    -0.2021512    3.7636093   -1.2591826 
C     2.1406849    3.1087604   -1.3509809 
C     2.2020074    2.9542898    1.0007428 
C     2.8930858    2.5588700   -0.1982925 
C     1.7973147    1.9186506    1.9020328 
C    -0.4601281    2.9924594    2.0162618 
C     0.4174298    1.9604748    2.4506499 
C    -2.0578265    3.2144179    0.2866803 
C    -1.8364712    2.6585855    1.6281350 
C    -2.6078120    2.3679628   -0.6974207 
C    -0.5604480    2.6413621   -2.1113106 
C    -1.8482712    2.0690853   -1.8882708 
C     1.8402393    2.0171071   -2.2373105 
C     0.4929064    1.7299739   -2.6160669 
C     3.2220011    1.2402886   -0.4766510 
C     2.7159891    0.9436254   -1.8270519 
C     2.4517844    0.6175100    1.7633235 
C     3.1396116    0.2359440    0.5380243 
C     1.9592862   -0.4540045    2.5727145 
C    -0.2135290    0.7091552    2.8944280 
C     0.5775919   -0.4350509    3.0627425 
C    -2.3898259    1.4390011    1.9471576 
C    -1.6058337    0.4596350    2.6622294 
C    -3.3240167    1.1775102   -0.3096315 
C    -3.2462239    0.7280321    1.0130664 
C    -2.1882543    0.7110450   -2.2894818 
C    -3.1987677    0.2106607   -1.3780788 
C     0.1627969    0.3281713   -2.9389345 
C    -1.2155687   -0.1631445   -2.8430315 
C     2.4193702   -0.3468001   -2.1526827 
C     1.1887252   -0.6520115   -2.8274591 
C     3.1467603   -1.1646106    0.0961807 
C     2.7776675   -1.4410266   -1.2646381 
C     2.3073923   -1.7824255    2.3207894 
C     2.8406908   -2.1865312    1.0532788 
C     0.0422573   -1.7764744    2.9565470 
C     1.1378464   -2.6293710    2.6272649 
C    -2.0872469   -0.8534025    2.3225672 
C    -3.1029192   -0.6916767    1.2988302 
C    -1.2446104   -2.0046248    2.3698108 
C    -3.2972189   -1.1514379   -1.1005918 
C    -3.2164733   -1.6311431    0.2855034 
C    -1.4595180   -1.5839198   -2.6952543 
C    -2.5407617   -2.0440322   -1.8948415 
C     0.9296223   -2.0559183   -2.5500531 
C     1.9323545   -2.5441431   -1.6107343 
C    -0.3678948   -2.5292810   -2.5110201 
C     2.1170691   -3.3594276    0.6619105 
C     1.0149382   -3.5775481    1.6314622 
C     1.5662526   -3.4895511   -0.6190611 
C    -1.3903434   -3.0439019    1.3263110 
C    -2.3796140   -2.8264581    0.3047032 
C    -2.0697522   -3.1269213   -1.0519814 
C    -0.7561151   -3.4813716   -1.4620625 
C    -0.2126273   -3.7754009    0.9257153 
C     0.1491711   -3.8735658   -0.4826521 
