60 

C    -2.8106368   -2.8801923   -0.8535145 
C    -2.8071832   -2.9801764    0.5592426 
C    -1.5853588   -3.6434060    0.9688032 
C    -1.5793981   -3.4563777   -1.3462483 
C    -0.8687914   -4.0148133   -0.2258213 
C    -0.9309596   -2.4624847   -2.1534511 
C    -3.0030355   -1.6017458   -1.4728322 
C    -1.8154470   -1.3186976   -2.2729469 
C    -3.5447807   -0.5702715   -0.7139392 
C    -2.9743259   -1.7939016    1.3482961 
C    -3.5258494   -0.6675158    0.7448702 
C    -0.9298754   -2.7898307    1.9120452 
C    -1.7774759   -1.6386993    2.1657344 
C     0.4915995   -2.6719139    1.9495136 
C     0.5013499   -3.9113460   -0.2105183 
C     1.1997052   -3.5137264    1.0161120 
C     0.4835193   -2.2798437   -2.1189319 
C     1.2122217   -3.2374161   -1.3032781 
C     1.0454204   -0.9505782   -2.3399730 
C    -1.3083906   -0.0114634   -2.4218260 
C     0.1441322    0.1850852   -2.5338504 
C    -3.2351589    0.7860595   -1.0541453 
C    -2.1757816    1.0903444   -1.9689286 
C    -3.1854776    0.6295247    1.2419263 
C    -3.3590283    1.5828304    0.1530335 
C    -1.2273247   -0.3550038    2.4337995 
C    -2.0715165    0.7995579    2.1207299 
C     1.0839529   -1.3781165    2.3509765 
C     0.2287559   -0.2051218    2.5351103 
C     2.4688207   -1.1617438    2.0389422 
C     2.5078918   -3.1727601    0.6247690 
C     2.4998809   -2.9496724   -0.8389545 
C     3.1584351   -2.0896903    1.1915405 
C     2.4426525   -0.7101921   -1.9073545 
C     3.1370554   -1.7114706   -1.1106362 
C     3.7794783   -1.3091921    0.1170147 
C     2.8768466    0.6154834   -1.7165993 
C     0.6611065    1.5546028   -2.4221547 
C     2.0406789    1.7507823   -2.0600621 
C    -1.6468527    2.4117802   -1.8985729 
C    -0.2206871    2.6455698   -2.1379375 
C    -2.8115885    2.8480750    0.2217720 
C    -2.1139531    3.3433890   -0.9363390 
C    -1.4898810    2.1090277    2.1555869 
C    -2.0085081    3.1745233    1.3694917 
C     0.8083974    1.1407677    2.3995049 
C    -0.0528381    2.2633480    2.2907028 
C     2.9598831    0.1632078    1.6951097 
C     3.7944921    0.0322727    0.4959938 
C     3.6461738    0.9838506   -0.5227596 
C     2.1807706    1.3170897    1.8984095 
C     2.3972294    2.8322056   -1.2087579 
C     3.2181096    2.2587568   -0.1436433 
C     2.4975525    2.4638629    1.0666769 
C     0.1795784    3.7469267   -1.2836799 
C    -0.9565950    4.0995598   -0.4827124 
C    -0.8838792    3.9729218    0.9165928 
C     0.3190165    3.4585830    1.5292256 
C     1.4366428    3.6938436   -0.6554488 
C     1.4992291    3.4835314    0.8042918 
