60 

C     1.0113595   -4.3945069   -0.1107294 
C     0.9086953   -3.9206834   -1.4197784 
C    -0.4995360   -3.7016133   -1.7572545 
C    -0.3603833   -4.4900774    0.4243342 
C    -1.2824648   -4.0086090   -0.5908845 
C    -0.3538969   -3.8989819    1.6869061 
C     1.8305211   -3.6770743    0.8539851 
C     0.9976366   -3.4088973    1.9949517 
C     2.6449747   -2.6319738    0.3978132 
C     1.6594634   -2.7808316   -1.8748190 
C     2.6104062   -2.2324502   -1.0144237 
C    -0.6017057   -2.4535488   -2.4096276 
C     0.7314661   -1.8758869   -2.5680352 
C    -1.6942186   -1.5667070   -2.1490123 
C    -2.2608704   -3.0714464   -0.2233467 
C    -2.5753833   -1.9629192   -1.0890497 
C    -1.2929975   -2.8753270    2.0523370 
C    -2.3147025   -2.5415722    1.1544692 
C     0.8782078   -2.1101061    2.5310122 
C    -0.5498536   -1.7814287    2.6464717 
C     2.7367775   -1.3955962    1.1431979 
C     1.8032668   -1.0714248    2.1676767 
C     2.8640943   -0.8259610   -1.0946761 
C     3.1066797   -0.3334198    0.2326808 
C     0.9297045   -0.4886040   -2.6197764 
C     2.1594817    0.0170711   -2.0067361 
C    -1.5380794   -0.1511340   -2.4663863 
C    -0.2309412    0.4217116   -2.7251064 
C    -2.5538217    0.7277699   -1.9625887 
C    -3.1636129   -0.9253158   -0.2701725 
C    -2.8046449   -1.1983595    1.1142974 
C    -3.2549271    0.3484142   -0.7350638 
C    -0.9781707   -0.4515217    2.5704687 
C    -2.2328461   -0.1424551    1.8728787 
C     1.4173546    0.3191214    2.3682915 
C     0.0333811    0.6021906    2.6987835 
C     2.9717953    1.0201388    0.5561625 
C     2.2265320    1.3835111    1.7707907 
C     2.3051275    1.3909628   -1.7790800 
C     2.9029509    1.8959606   -0.5777614 
C    -0.0208900    1.8617856   -2.5701653 
C     1.2898071    2.3548927   -2.2195148 
C    -2.3514313    2.1058471   -1.8805860 
C    -1.1113395    2.7155561   -2.1596122 
C    -3.1641527    1.4670893    0.1930031 
C    -2.5248792    1.2326327    1.4687470 
C    -2.8209060    2.6010358   -0.5712589 
C    -0.4277122    1.9395899    2.6252822 
C    -1.7057353    2.2767810    1.9607590 
C     1.7828551    2.7261534    1.8926347 
C     0.4797228    2.9852243    2.3990116 
C     2.4397812    3.2342078   -0.4232600 
C     1.4599520    3.5415268   -1.4794264 
C     1.9717305    3.6838186    0.7962327 
C    -0.9288699    3.8090403   -1.1856849 
C    -1.9294294    3.5896344   -0.1209441 
C    -1.5042430    3.5152232    1.2377064 
C    -0.1842253    3.9840737    1.5421653 
C     0.3583630    4.2240137   -0.8553832 
C     0.7047823    4.3934546    0.5570936 
