60 

C     1.3510568   -3.9200268    0.7729240 
C     0.4102695   -4.2126166   -0.2126025 
C    -0.9311694   -4.0344670    0.3366485 
C     0.6071015   -3.3813400    1.9190407 
C    -0.8055275   -3.4011422    1.6109879 
C     1.2299898   -2.1919811    2.3138857 
C     2.4498185   -3.0509317    0.4849191 
C     2.4843534   -2.0708874    1.5517918 
C     2.6293986   -2.5691605   -0.8365390 
C     0.4452698   -3.5409675   -1.4926675 
C     1.5540474   -2.7481280   -1.8082951 
C    -1.7526762   -3.4571473   -0.6600561 
C    -0.8809660   -3.0314088   -1.7629548 
C    -2.7909963   -2.6280436   -0.2438112 
C    -1.6148721   -2.2599072    1.9326665 
C    -2.7511692   -2.0395490    1.0948875 
C     0.4727212   -1.0069805    2.6625298 
C    -0.9748724   -1.0809479    2.5613160 
C     1.1487061    0.2862582    2.5879233 
C     3.0305393   -0.8228347    1.3505824 
C     2.4451236    0.3382798    1.9712535 
C     3.1883806   -1.2547361   -1.0484171 
C     3.5230093   -0.4326463    0.0377478 
C     1.3719892   -1.4853490   -2.5004009 
C     2.4852200   -0.6361408   -2.1567608 
C    -1.0782901   -1.7417698   -2.3761987 
C     0.0828785   -0.9212564   -2.7307707 
C    -3.2151165   -1.5988535   -1.1286997 
C    -2.3256060   -1.0930100   -2.1034295 
C    -3.3654469   -0.7252727    1.0013716 
C    -3.6940485   -0.4732606   -0.3598534 
C    -1.6890125    0.1510741    2.5505676 
C    -2.8718016    0.3328040    1.7675543 
C     0.3835312    1.5280082    2.6200739 
C    -1.0270154    1.4390181    2.6307862 
C     0.9588841    2.7558573    2.0787157 
C     2.8696836    1.4883001    1.2019707 
C     3.4137153    1.0011837   -0.0604742 
C     2.1741858    2.6778247    1.2518822 
C     2.3708264    0.7408751   -2.2438925 
C     2.9632665    1.6056166   -1.2421133 
C    -0.0429309    0.5454268   -2.7948636 
C     1.1254630    1.3435920   -2.6615015 
C    -2.4149701    0.3792953   -2.0587600 
C    -3.2952542    0.7446513   -0.9755627 
C    -1.3182309    1.1853697   -2.4344719 
C    -2.8666619    1.6943810    1.2403495 
C    -1.8525714    2.4251030    1.9431391 
C    -3.0181837    1.8906619   -0.1779719 
C     0.1444784    3.7679622    1.5551033 
C    -1.2614839    3.5631482    1.3658919 
C     1.9655538    3.4618502    0.0529258 
C     2.1945998    2.8319522   -1.1963884 
C     1.0927144    2.6971728   -2.1303671 
C     0.7447329    4.1820962    0.2583441 
C    -1.3329775    2.5325106   -1.9363894 
C    -2.2091914    2.8935907   -0.8003985 
C    -1.5298033    3.8395195   -0.0217165 
C    -0.1409804    3.3212793   -1.8585736 
C    -0.2596820    4.1661003   -0.6928780 
