60 

C    -0.3914274    4.3523897    1.5345041 
C     0.5155682    4.5305897    0.4166240 
C    -0.2350703    4.4171127   -0.7915293 
C    -1.6629258    3.9097928    1.0222330 
C    -1.5773467    3.9798330   -0.3874632 
C    -1.9693841    2.6070600    1.5985713 
C     0.1246465    3.2915988    2.3289297 
C    -0.8732638    2.2702753    2.4824396 
C     1.6504641    3.6632306    0.6137562 
C     1.4148659    2.8769853    1.8548727 
C     2.1654754    2.9694710   -0.4834951 
C     0.1830434    3.5345146   -1.8234058 
C     1.4405320    2.9157252   -1.7443078 
C    -1.9788853    2.8716701   -1.1936135 
C    -0.9389006    2.6347774   -2.1585909 
C    -2.5707680    1.5620193    0.8394543 
C    -2.6521210    1.7448241   -0.6096778 
C    -2.4914952    0.2118466    1.3658944 
C    -0.4954464    0.9327595    2.6820628 
C    -1.5068921   -0.0682439    2.3938230 
C     1.8050694    1.5295833    1.9758957 
C     0.9005160    0.5620453    2.6107968 
C     2.7887530    1.6802409   -0.2964559 
C     2.7178673    0.9979620    0.9582643 
C     1.6577785    1.5908195   -2.2984795 
C     2.6454672    0.9101646   -1.5084032 
C    -0.7433648    1.3477333   -2.7356220 
C     0.6144642    0.8275258   -2.9072329 
C    -2.6870449    0.5858450   -1.4079208 
C    -1.7830625    0.4102593   -2.5113179 
C    -2.9501223   -0.9143744    0.5453707 
C    -2.9718813   -0.7133614   -0.8641438 
C    -2.7110644   -2.2550475    0.9970568 
C    -1.1670278   -1.4062977    2.6941348 
C    -1.9121140   -2.4754250    2.1432054 
C     1.2457813   -0.8500517    2.6292680 
C     0.2226796   -1.8138202    2.8287265 
C     2.9993135   -0.3763538    0.9472798 
C     2.4170569   -1.2829316    1.9158169 
C     2.7977217   -0.4999397   -1.5246464 
C     3.2255857   -1.1131983   -0.3040624 
C     0.8007568   -0.5830909   -2.9990228 
C     1.9318146   -1.2528350   -2.3747861 
C    -1.5894341   -1.0139718   -2.6964082 
C    -2.4312201   -1.7183248   -1.7733332 
C    -0.3083609   -1.5002862   -2.9831937 
C    -2.3423836   -3.3009614    0.0530921 
C    -2.0444792   -2.9777253   -1.2865256 
C    -0.9964205   -3.5934160    1.8986803 
C     0.3097522   -3.1693297    2.2632477 
C    -1.2562073   -4.0892459    0.6076887 
C     2.4562975   -2.5756881    1.3433937 
C     2.9159021   -2.4545255   -0.0464213 
C     1.3868670   -3.4974335    1.3991392 
C     1.5367919   -2.5982773   -2.0311445 
C     0.1397549   -2.7604709   -2.3949582 
C    -0.7107773   -3.5176950   -1.5951787 
C    -0.2091074   -4.1740143   -0.3785863 
C     2.0291705   -3.2158347   -0.8580237 
C     1.1182416   -3.9564833    0.0237281 
