60 

C    -0.5546611   -3.8615119    1.0455270 
C    -1.2745637   -3.8351094   -0.1408541 
C    -2.5020360   -3.0895008    0.0798116 
C    -1.2860341   -3.0071624    2.0121257 
C    -2.4535644   -2.4809220    1.3907476 
C    -0.3604237   -2.1700901    2.6377893 
C     0.8215328   -3.5189925    1.0935197 
C     0.9808316   -2.6389858    2.2447145 
C     1.5569530   -3.2502012   -0.1226272 
C    -0.6484704   -3.3595623   -1.3524859 
C     0.7694342   -3.1294263   -1.3744348 
C    -2.7127922   -2.2821089   -1.0614903 
C    -1.5634915   -2.4145350   -1.9575039 
C    -3.2986519   -1.0437855   -0.8937702 
C    -2.7792812   -1.1012254    1.5590264 
C    -3.4788519   -0.5087605    0.4482797 
C    -0.6304378   -0.7674136    2.8293269 
C    -1.8890697   -0.2229188    2.3396521 
C     0.5438203    0.1060819    2.9723737 
C     2.0581479   -1.7894456    2.3066807 
C     1.8517126   -0.3894011    2.6811487 
C     2.7349724   -2.4475565    0.0279546 
C     3.0337897   -1.8421146    1.2746193 
C     3.1404946   -1.4792312   -0.9950151 
C     1.2096428   -2.2036504   -2.3561085 
C     2.4497234   -1.4347688   -2.1896241 
C    -1.1009627   -1.2907299   -2.6946348 
C     0.2758720   -1.3395827   -3.0415320 
C    -2.9440671    0.0831037   -1.7671089 
C    -1.7677121    0.0290269   -2.5602640 
C    -3.5428510    0.8871034    0.3106063 
C    -3.2763058    1.2636461   -1.0649868 
C    -2.0001069    1.2435861    2.1788692 
C    -2.8633126    1.7852994    1.1635397 
C     0.3953125    1.5015559    2.8550084 
C    -0.9043515    2.0880486    2.5725399 
C     1.4112480    2.3382524    2.2543835 
C     2.7805664    0.4094331    1.9203196 
C     3.4623626   -0.4800867    1.0335539 
C     3.5375408   -0.2186058   -0.3465664 
C     2.4756933    1.7365299    1.5125616 
C     3.1258552    1.0727376   -0.8449481 
C     2.6881786    2.1086190    0.1059712 
C     2.2794178   -0.1603794   -2.8079721 
C     0.9440214   -0.1154116   -3.3442977 
C     2.5650534    1.0712969   -2.1613989 
C    -0.9836927    1.2819928   -2.6825246 
C     0.3775051    1.1466488   -3.0954366 
C     1.4517676    1.9532107   -2.4889989 
C    -2.4741094    2.4266554   -1.0561346 
C    -2.4159481    2.9023533    0.3227345 
C    -1.3264788    2.4768967   -1.9112245 
C    -0.6877348    3.3567440    1.9677990 
C     0.7452535    3.4935947    1.7563396 
C    -1.3522168    3.6882738    0.7366658 
C     1.8765280    3.1777348   -0.4025249 
C     1.1423921    2.9831876   -1.6574472 
C    -0.2638897    3.3607703   -1.4687207 
C     0.9835018    3.8884154    0.4360167 
C    -0.3330559    4.0123774   -0.2295704 
