60 

C    -4.2928852    0.3278919   -1.1259378 
C    -4.0041592    1.4515904   -0.3463845 
C    -2.9662133    2.2307747   -1.0211266 
C    -3.4834104    0.4172590   -2.3498751 
C    -2.5939698    1.5529153   -2.2375581 
C    -2.9336215   -0.8428036   -2.5905285 
C    -4.1146173   -1.0088162   -0.5685364 
C    -3.2986076   -1.7479578   -1.4916621 
C    -3.8185700   -1.1369366    0.7921593 
C    -3.6524907    1.3394950    1.0370841 
C    -3.7373028    0.0635963    1.6478613 
C    -2.0047761    2.6232454   -0.0554497 
C    -2.4437848    2.1346062    1.2515958 
C    -0.6339032    2.6910298   -0.3963900 
C    -1.2197401    1.4243899   -2.5263532 
C    -0.2770342    2.2372777   -1.7396472 
C    -1.5569696   -0.9968927   -2.8768970 
C    -0.7054110    0.1315701   -2.9991660 
C    -2.1184793   -2.4224660   -1.0921855 
C    -1.0690988   -2.0932866   -2.0431340 
C    -2.7435405   -2.0446356    1.2276370 
C    -1.7776076   -2.5731964    0.2983610 
C    -2.8163941   -0.2164531    2.6776503 
C    -2.2590171   -1.5660192    2.4618166 
C    -1.4694983    1.8023829    2.2140681 
C    -1.7452176    0.6256625    3.0197409 
C     0.3683323    2.6505084    0.6678260 
C    -0.0754998    2.1923203    1.9787456 
C     1.7776076    2.5731964    0.2983610 
C     1.0690988    2.0932866   -2.0431340 
C     2.1184793    2.4224660   -1.0921855 
C     0.7054110   -0.1315701   -2.9991660 
C     1.5569696    0.9968927   -2.8768970 
C     0.2770342   -2.2372777   -1.7396472 
C     1.2197401   -1.4243899   -2.5263532 
C    -0.3683323   -2.6505084    0.6678260 
C     0.6339032   -2.6910298   -0.3963900 
C    -0.9073339   -1.5840624    2.8199544 
C    -0.6299827   -0.2457079    3.3663313 
C     0.0754998   -2.1923203    1.9787456 
C     0.9073339    1.5840624    2.8199544 
C     0.6299827    0.2457079    3.3663313 
C     2.7435405    2.0446356    1.2276370 
C     2.2590171    1.5660192    2.4618166 
C     3.8185700    1.1369366    0.7921593 
C     3.2986076    1.7479578   -1.4916621 
C     2.9336215    0.8428036   -2.5905285 
C     4.1146173    1.0088162   -0.5685364 
C     2.5939698   -1.5529153   -2.2375581 
C     3.4834104   -0.4172590   -2.3498751 
C     4.2928852   -0.3278919   -1.1259378 
C     2.0047761   -2.6232454   -0.0554497 
C     2.9662133   -2.2307747   -1.0211266 
C     4.0041592   -1.4515904   -0.3463845 
C     1.4694983   -1.8023829    2.2140681 
C     1.7452176   -0.6256625    3.0197409 
C     2.8163941    0.2164531    2.6776503 
C     3.7373028   -0.0635963    1.6478613 
C     2.4437848   -2.1346062    1.2515958 
C     3.6524907   -1.3394950    1.0370841 
