60 

C     1.3046117   -4.0993567   -0.6600107 
C     0.0867478   -3.9770950   -1.3293052 
C    -0.9741427   -3.9907457   -0.3152207 
C     1.0390370   -4.0206246    0.8119958 
C    -0.3693625   -3.9414848    1.0007955 
C     1.9016813   -3.0262880    1.3400523 
C     2.3649002   -3.2474343   -0.9770147 
C     2.8294595   -2.6849234    0.2793352 
C     2.1672131   -2.1362301   -1.8725401 
C    -0.1612568   -2.8590298   -2.1927921 
C     0.8764537   -1.8768271   -2.4577827 
C    -1.9691376   -3.0799721   -0.6752485 
C    -1.4882735   -2.3845585   -1.8781452 
C    -2.6693498   -2.3358687    0.3309468 
C    -0.8818841   -3.0097628    1.9275202 
C    -2.1064097   -2.3172787    1.6475337 
C     1.3807483   -1.9496317    2.1784654 
C     0.0150997   -2.0317087    2.5385824 
C     1.9850884   -0.6123344    2.1294958 
C     3.1863267   -1.3565500    0.0865929 
C     2.8674769   -1.0108787   -1.2941661 
C     2.9731262   -0.3756540    1.1012833 
C     2.5997166    0.3150391   -1.6606291 
C     0.4857592   -0.4858218   -2.7347793 
C     1.4571025    0.5929213   -2.5194118 
C    -1.8994164   -1.0733209   -2.1715736 
C    -0.9283927   -0.1417164   -2.7615909 
C    -3.3382896   -1.1567965   -0.1204925 
C    -2.9887132   -0.5548243   -1.3952334 
C    -3.6405528   -0.0960188    0.7798331 
C    -2.0860621   -1.0455517    2.3786750 
C    -0.7517323   -0.8316202    2.8353417 
C    -2.8845353    0.0270412    1.9821844 
C     1.2598235    0.5591020    2.6466836 
C    -0.1728528    0.4619487    2.8611509 
C     1.7979237    1.8651500    2.4005891 
C     3.2320943    0.9488201    0.6622794 
C     3.0478069    1.3112651   -0.7386023 
C     2.8436256    2.0365227    1.4573196 
C     2.5797744    2.6775958   -0.7855921 
C     2.5157131    3.1652749    0.5752501 
C     1.0353816    1.9537004   -2.5801878 
C     1.5526057    3.0017045   -1.6710403 
C    -1.2995265    1.2311794   -2.7836216 
C    -0.3186323    2.2363968   -2.7977278 
C    -3.2170580    0.8743992   -1.2832602 
C    -3.5845063    1.1625142    0.0854730 
C    -2.3883504    1.7451704   -1.9514506 
C    -2.3453033    1.3677809    2.0259612 
C    -1.0470458    1.6042150    2.5080392 
C    -2.8394124    2.0944421    0.8323193 
C     0.9250570    3.0193674    2.2244420 
C     1.3864434    3.7972744    1.0602194 
C    -0.4413810    2.8455838    2.0863868 
C     0.4163968    3.8060501   -1.2007145 
C    -0.7221050    3.3360134   -1.9024720 
C    -1.9308640    2.9800263   -1.2877945 
C    -2.0318063    3.0699259    0.1626066 
C     0.2695229    4.0605496    0.1957855 
C    -0.9063624    3.5629336    0.8652613 
