60 

C    -0.8988896   -4.7281602    0.1392992 
C     0.4507527   -4.7956043   -0.1908056 
C     1.2248776   -4.1822317    0.8553521 
C    -1.0116497   -3.9878248    1.4022106 
C     0.2961776   -3.6124004    1.8508111 
C    -1.9552489   -2.9395509    1.2194046 
C    -1.5489795   -3.9098727   -0.8625715 
C    -2.3262993   -2.9256834   -0.2056997 
C     0.6812916   -4.0102736   -1.4225238 
C    -0.5702213   -3.4446225   -1.8444626 
C     2.1527611   -3.3066010    0.2346542 
C     1.7707675   -3.1395536   -1.2030722 
C     2.5551861   -2.1827227    0.9241666 
C     0.5279678   -2.2848627    2.3684008 
C     1.8028203   -1.7148766    2.0850118 
C    -1.8321351   -1.6903105    1.8911007 
C    -0.5785289   -1.3202852    2.5257329 
C    -2.6658177   -0.6588361    1.3748426 
C    -2.6113591   -1.7016867   -0.8510133 
C    -3.1028160   -0.6826069   -0.0015079 
C    -0.6207889   -2.0985493   -2.3090399 
C    -1.8263994   -1.3131041   -2.0201199 
C     1.8056869   -1.8454599   -1.7809943 
C     0.6220096   -1.3532993   -2.4816546 
C     3.0274603   -1.0306915    0.2246103 
C     2.6995723   -0.8575315   -1.1627306 
C     2.0376990   -0.3218065    2.1883149 
C     2.9109732    0.0969165    1.1051732 
C    -0.3176886    0.0940249    2.7615468 
C     1.0562719    0.5761831    2.6805444 
C    -2.5200856    0.6989367    1.7756008 
C    -1.3822951    1.0917982    2.5460284 
C    -3.2160907    0.6755640   -0.4346312 
C    -3.0313083    1.5434729    0.7020395 
C    -1.8582711    0.0452018   -2.3826631 
C    -2.6476129    1.0321551   -1.6634997 
C     0.5666603    0.0475009   -2.8582127 
C    -0.7005751    0.7155031   -2.9142122 
C     2.6978434    0.4602996   -1.6426569 
C     1.7049864    0.8852828   -2.6266049 
C     2.9437847    1.4305814    0.6276115 
C     3.0020382    1.5998154   -0.7975281 
C     1.3365613    1.9619602    2.4529524 
C     2.2613671    2.4058843    1.4039810 
C    -1.0565814    2.4894976    2.4944356 
C     0.3046535    2.9144435    2.5438952 
C    -2.5364703    2.8352112    0.5236267 
C    -1.7003470    3.3663536    1.5327578 
C    -2.0174591    2.3274077   -1.8305885 
C    -0.8347479    2.1356280   -2.6477611 
C    -2.0082110    3.2570930   -0.7828386 
C     1.5694528    2.2843715   -2.5072089 
C     2.3678701    2.7325778   -1.3768119 
C     0.3021343    2.9288542   -2.4174262 
C     1.6923932    3.6049056    0.7939743 
C     0.5356053    3.9629114    1.5455089 
C    -0.6864481    4.1963515    0.9027573 
C    -0.8211020    4.0752122   -0.5312942 
C     1.6392534    3.6911728   -0.6254736 
C     0.3375478    3.8759364   -1.3007389 
