60 

C    -0.6542957    0.2930888   -4.9439516 
C     0.6542957   -0.2930888   -4.9439516 
C     0.5939294   -1.5220372   -4.2600152 
C    -1.5631347   -0.6017488   -4.2109473 
C    -0.8100936   -1.7839940   -3.8840243 
C    -2.1600186    0.1295200   -3.1436437 
C    -0.5939294    1.5220372   -4.2600152 
C    -1.5734561    1.4768263   -3.1810122 
C     1.5631347    0.6017488   -4.2109473 
C     0.8100936    1.7839940   -3.8840243 
C     1.5734561   -1.4768263   -3.1810122 
C     2.1600186   -0.1295200   -3.1436437 
C     1.3551474   -2.1712104   -1.9848041 
C    -1.0380399   -2.3833859   -2.6655254 
C     0.0748094   -2.8485892   -1.8434818 
C    -2.4257217   -0.4896100   -1.8689405 
C    -2.0166139   -1.8503105   -1.7297899 
C    -2.4801973    0.3166320   -0.6589605 
C    -1.3551474    2.1712104   -1.9848041 
C    -2.0276441    1.7034856   -0.7562746 
C     1.0380399    2.3833859   -2.6655254 
C    -0.0748094    2.8485892   -1.8434818 
C     2.4257217    0.4896100   -1.8689405 
C     2.0166139    1.8503105   -1.7297899 
C     2.0276441   -1.7034856   -0.7562746 
C     2.4801973   -0.3166320   -0.6589605 
C     1.7148882   -2.3720901    0.4352545 
C    -0.4286121   -3.0530783   -0.5488194 
C    -1.7148882   -2.3720901   -0.4352545 
C     0.4286121   -3.0530783    0.5488194 
C    -2.4801973   -0.3166320    0.6589605 
C    -2.0276441   -1.7034856    0.7562746 
C    -2.4257217    0.4896100    1.8689405 
C    -1.7148882    2.3720901    0.4352545 
C    -2.0166139    1.8503105    1.7297899 
C     0.4286121    3.0530783   -0.5488194 
C     1.7148882    2.3720901   -0.4352545 
C    -0.4286121    3.0530783    0.5488194 
C     2.4801973    0.3166320    0.6589605 
C     2.0276441    1.7034856    0.7562746 
C     2.0166139   -1.8503105    1.7297899 
C     2.4257217   -0.4896100    1.8689405 
C    -0.0748094   -2.8485892    1.8434818 
C    -1.3551474   -2.1712104    1.9848041 
C     1.0380399   -2.3833859    2.6655254 
C    -2.1600186   -0.1295200    3.1436437 
C    -1.5734561   -1.4768263    3.1810122 
C    -1.5631347    0.6017488    4.2109473 
C    -1.0380399    2.3833859    2.6655254 
C     0.0748094    2.8485892    1.8434818 
C     1.3551474    2.1712104    1.9848041 
C    -0.8100936    1.7839940    3.8840243 
C     2.1600186    0.1295200    3.1436437 
C     1.5734561    1.4768263    3.1810122 
C     0.5939294    1.5220372    4.2600152 
C     0.8100936   -1.7839940    3.8840243 
C    -0.5939294   -1.5220372    4.2600152 
C    -0.6542957   -0.2930888    4.9439516 
C     1.5631347   -0.6017488    4.2109473 
C     0.6542957    0.2930888    4.9439516 
