60 

C     0.8013741    3.6506149   -1.5060575 
C     1.9319363    3.4618113   -0.7275727 
C     1.5601887    3.6865191    0.6881664 
C    -0.3072017    4.0168466   -0.6148670 
C     0.1424530    3.8858197    0.7491374 
C    -1.4597024    3.3609834   -1.0656986 
C     0.3631996    2.6233322   -2.3984084 
C    -1.0927252    2.5563728   -2.2444591 
C     1.1209578    1.4291994   -2.5672149 
C     2.7037195    2.2768968   -0.8329933 
C     2.3610805    1.2576778   -1.7817478 
C     2.2017781    2.7025000    1.4503841 
C     3.0345540    1.8935076    0.5371493 
C     1.4796134    2.0266741    2.4628510 
C    -0.6441190    3.0909066    1.6738887 
C     0.0636516    2.2109647    2.5649136 
C    -2.3544824    2.8001729   -0.1232602 
C    -1.9424623    2.6484998    1.2454023 
C    -3.1520366    1.6448282   -0.4767538 
C    -1.7761022    1.3897185   -2.5040203 
C    -2.8786655    0.9627863   -1.6628180 
C     0.3780979    0.2235805   -2.9705387 
C    -1.0556123    0.2117837   -2.9335117 
C     0.9877413   -1.0390765   -2.8871503 
C     2.8537038   -0.0890011   -1.5123941 
C     2.2966367   -1.1979414   -2.2440100 
C     3.3055775    0.5813940    0.8333475 
C     3.3765043   -0.4008615   -0.2172467 
C     1.7597490    0.6307760    2.7460511 
C     2.6962615   -0.0626336    1.9946438 
C    -0.5166669    0.9402136    3.0014497 
C     0.5242832   -0.0347948    3.0995203 
C    -2.5585497    1.4273265    1.7614862 
C    -3.3847467    0.8660031    0.7253387 
C    -1.8379982    0.5589977    2.6420386 
C    -3.5899887   -0.5207041    0.6418605 
C    -2.9110574   -0.4965537   -1.7128623 
C    -1.7866332   -0.9509575   -2.5119830 
C    -3.3338526   -1.2312412   -0.6192870 
C     0.2292574   -2.2529638   -2.6722250 
C    -1.1389131   -2.1982284   -2.2620315 
C     2.3983384   -2.5177263   -1.7788501 
C     1.1243695   -3.1911177   -2.0634495 
C     3.1292968   -1.6964959    0.3878995 
C     2.5301767   -1.4683271    1.6899425 
C     2.7236224   -2.7811139   -0.3999920 
C     0.3129651   -1.4287784    2.8063850 
C     1.3716379   -2.1837759    2.1125063 
C    -2.1099719   -0.8539616    2.5902239 
C    -3.0856707   -1.3431249    1.6749384 
C    -1.0377762   -1.8337221    2.6641629 
C    -2.6703466   -2.5011423   -0.3135857 
C    -1.5871076   -3.0074772   -1.1103077 
C    -2.5994531   -2.5812297    1.0999411 
C    -1.3871246   -2.9304985    1.7607010 
C     0.7255496   -3.8972660   -0.9394762 
C     1.7185139   -3.6455684    0.1295396 
C     1.0002435   -3.3206688    1.2955249 
C    -0.5906708   -3.7701115   -0.4046301 
C    -0.4173955   -3.5896437    1.0300087 
