60 

C    -0.0648407    4.4733338   -0.3525842 
C     0.8850689    4.3294259    0.6600408 
C     0.2416470    3.6646809    1.8174368 
C    -1.3707599    4.1103700    0.2296283 
C    -1.1253333    3.4351298    1.4922423 
C    -2.1051051    3.4603465   -0.7409712 
C     0.0779765    3.7383756   -1.5979341 
C    -1.2205344    3.2371454   -1.9062493 
C     1.2005533    2.8494471   -1.8102035 
C     2.0766631    3.6483808    0.3918277 
C     2.2669747    2.9313004   -0.8389748 
C     1.1085914    2.6059968    2.2527712 
C     2.3143111    2.6929579    1.4850599 
C     0.5802901    1.3235192    2.5706680 
C    -1.7005018    2.1442702    1.7480472 
C    -0.8819136    1.1739464    2.4956278 
C    -2.7845340    2.2485487   -0.4701790 
C    -2.6851270    1.6016485    0.8090308 
C    -1.4661411    1.9332289   -2.3899679 
C    -2.6056901    1.4137656   -1.6490846 
C     0.9556751    1.5310916   -2.4672418 
C    -0.3988514    1.0448435   -2.7350273 
C     1.9402533    0.5227563   -2.3235854 
C     2.9878454    1.7310871   -0.4777357 
C     2.9028218    1.5376437    0.9752996 
C     2.9351620    0.6238237   -1.2766306 
C     1.4240274    0.1431467    2.3797437 
C     2.5722772    0.2526705    1.4962504 
C     0.8608171   -1.1779830    2.6346889 
C    -1.3987473   -0.1069949    2.6828195 
C    -0.5419124   -1.2592660    2.9327857 
C    -3.0474255    0.1923956    0.8665205 
C    -2.5903492   -0.5697083    1.9827402 
C    -2.8203057    0.0677325   -1.5834444 
C    -3.2547389   -0.5479854   -0.3435574 
C    -0.6937690   -0.3976194   -2.7721117 
C    -1.9669433   -0.8409801   -2.2931125 
C     1.6888994   -0.8886849   -2.5109483 
C     0.3809071   -1.3806407   -2.7491309 
C     3.1427714   -0.6860014   -0.7146678 
C     2.9629429   -0.8961102    0.6922473 
C     2.6022183   -1.6340823   -1.6509781 
C     1.4788650   -2.3415564    2.0989594 
C     2.5398423   -2.1960365    1.0991214 
C     0.7060642   -3.5246141    1.7402606 
C    -1.2750800   -2.4117323    2.5717878 
C    -2.5122901   -1.9756406    1.9223900 
C    -0.7012806   -3.4883532    1.8474941 
C    -2.9437836   -1.9448667   -0.4460765 
C    -2.1571024   -2.1332919   -1.6657159 
C    -2.6189513   -2.6951483    0.7030271 
C    -1.5414553   -3.6915533    0.6535199 
C     0.1105434   -2.7500080   -2.3329487 
C    -1.1722814   -3.0985066   -1.7197533 
C    -0.9179654   -3.9716202   -0.5720802 
C     2.3145639   -2.9355486   -1.2384289 
C     2.4315118   -3.2472176    0.1615873 
C     1.2833864   -4.0645612    0.5420844 
C     1.1026959   -3.5416784   -1.7119425 
C     0.4875465   -4.2650191   -0.5944425 
