60 

C    -0.1332115    0.6815933    4.8670779 
C     0.1332115   -0.6815933    4.8670779 
C     1.3696678   -0.9058875    4.1379543 
C     0.9148704    1.3426499    4.0805738 
C     1.8706010    0.3588665    3.6243615 
C     0.3149983    2.1962653    3.1268867 
C    -1.3696678    0.9058875    4.1379543 
C    -1.1685650    1.9734349    3.2250464 
C    -0.9148704   -1.3426499    4.0805738 
C    -1.8706010   -0.3588665    3.6243615 
C     1.1685650   -1.9734349    3.2250464 
C    -0.3149983   -2.1962653    3.1268867 
C     1.9002124   -1.9758886    2.0543974 
C     2.3740045    0.4362079    2.2851987 
C     2.6079433   -0.8009508    1.5991024 
C     0.8843938    2.3869963    1.8458025 
C     2.0021386    1.5438717    1.4186179 
C     0.0012428    2.9346754    0.8124822 
C    -1.9002124    1.9758886    2.0543974 
C    -1.3959809    2.6603255    0.8893475 
C    -2.3740045   -0.4362079    2.2851987 
C    -2.6079433    0.8009508    1.5991024 
C    -0.8843938   -2.3869963    1.8458025 
C    -2.0021386   -1.5438717    1.4186179 
C     1.3959809   -2.6603255    0.8893475 
C    -0.0012428   -2.9346754    0.8124822 
C     2.6892373   -0.9011682    0.1737260 
C     2.0502811   -2.1403534   -0.2638127 
C     2.3189959    1.4808680   -0.0000742 
C     2.6582648    0.2163805   -0.6726674 
C     0.5130677    3.1191299   -0.4680727 
C     1.7925118    2.5062457   -0.8317499 
C    -0.3163757    3.0631038   -1.6420075 
C    -2.0502811    2.1403534   -0.2638127 
C    -2.6892373    0.9011682    0.1737260 
C    -1.5442071    2.3099133   -1.5719599 
C    -2.3189959   -1.4808680   -0.0000742 
C    -2.6582648   -0.2163805   -0.6726674 
C    -0.5130677   -3.1191299   -0.4680727 
C    -1.7925118   -2.5062457   -0.8317499 
C     1.5442071   -2.3099133   -1.5719599 
C     0.3163757   -3.0631038   -1.6420075 
C     2.4144802   -0.0061309   -2.1180814 
C     1.8535288   -1.2959457   -2.5857685 
C     1.8402135    2.3863228   -2.2244129 
C     0.5563182    2.8658271   -2.7569112 
C     2.1742814    1.1644154   -2.9017680 
C     0.1797335    2.0697672   -3.8078095 
C     1.2922875    1.1035596   -4.0462113 
C    -1.8535288    1.2959457   -2.5857685 
C    -2.4144802    0.0061309   -2.1180814 
C    -1.0604931    1.3221079   -3.7986374 
C    -1.8402135   -2.3863228   -2.2244129 
C    -0.5563182   -2.8658271   -2.7569112 
C    -2.1742814   -1.1644154   -2.9017680 
C     1.0604931   -1.3221079   -3.7986374 
C     0.7468236   -0.0834846   -4.4506306 
C    -0.7468236    0.0834846   -4.4506306 
C    -0.1797335   -2.0697672   -3.8078095 
C    -1.2922875   -1.1035596   -4.0462113 
