60 

C     1.2877520   -4.3754118   -0.5300101 
C     2.4095182   -3.4688288   -0.5807398 
C     2.6745719   -3.0106983    0.7231870 
C     0.7164930   -4.2534006    0.8002145 
C     1.5821414   -3.4922788    1.6086502 
C    -0.6543723   -3.8069729    0.7025980 
C     0.3115988   -3.8418000   -1.4086707 
C    -0.9370910   -3.6178104   -0.7109098 
C     2.1435449   -2.4406344   -1.5849207 
C     0.8393853   -2.7166463   -2.1430428 
C     2.5366819   -1.0918524   -1.3902522 
C     2.8773526   -1.6407790    0.9831720 
C     3.0059044   -0.6805092   -0.0727212 
C     1.1123579   -2.3735525    2.3457206 
C     2.0270394   -1.2635330    2.0924304 
C    -1.1918879   -2.8655558    1.6279219 
C    -0.2807555   -2.0745754    2.4739070 
C    -2.4024014   -2.2475202    1.1984420 
C    -1.8325048   -2.6233848   -1.1740182 
C    -2.7368484   -2.1198374   -0.1972130 
C    -0.0125891   -1.6674146   -2.6021800 
C    -1.4326316   -1.7303787   -2.2683966 
C     1.8937729   -0.0936104   -2.2295131 
C     0.6224065   -0.3871952   -2.8666863 
C     2.2436153    1.2587893   -1.9823243 
C     2.9749167    0.7008355    0.3089992 
C     2.8855150    1.6492356   -0.7597659 
C     1.7104697    0.0763086    2.3591465 
C     2.4549642    1.0940672    1.6190586 
C    -0.6300002   -0.7063185    2.8389262 
C     0.3910309    0.3415099    2.9083525 
C    -2.8433178   -1.0537765    1.8277100 
C    -1.9710313   -0.2655550    2.6113930 
C    -3.4429360   -0.8430933   -0.3720366 
C    -3.5492036   -0.2006765    0.8917995 
C    -2.2070214   -0.5507411   -2.4621442 
C    -3.1563229   -0.0605556   -1.4729245 
C    -0.2265893    0.7265751   -3.1848810 
C    -1.6094725    0.5906830   -3.0237626 
C     1.3750425    2.3846079   -2.3672606 
C     0.1072262    2.0958832   -2.8303967 
C     2.5460124    3.0285646   -0.5031764 
C     1.5399464    3.4570989   -1.4562304 
C     2.0837166    2.4602767    1.8228416 
C     2.1832527    3.4404527    0.7732051 
C    -0.0241422    1.7059837    2.9118476 
C     0.8451761    2.7129968    2.4806875 
C    -2.2907295    1.1231734    2.2748292 
C    -3.1353457    1.1441071    1.0912703 
C    -1.3574760    2.0966065    2.4436156 
C    -2.9577804    1.4001539   -1.3136719 
C    -2.1165839    1.8093615   -2.3547144 
C    -1.0591995    2.7185821   -2.1873235 
C    -2.7936101    2.0033890   -0.0096790 
C     0.4188460    3.9815007   -0.7119712 
C     0.8853334    4.1382727    0.6425350 
C     0.0798046    3.7103913    1.6824563 
C    -1.2283526    3.2019610    1.4982135 
C    -0.9089820    3.4607890   -0.9600264 
C    -1.7762106    3.0527403    0.1684333 
