60 

C     0.0397831    4.4017714    0.2303868 
C     0.9919893    3.9312824    1.1160663 
C     0.3211246    3.2029654    2.2160286 
C    -1.2730364    3.9790386    0.7583325 
C    -1.0554638    3.0974515    1.9284595 
C    -2.0137136    3.5304218   -0.3083575 
C     0.1111387    4.0227041   -1.1752066 
C    -1.1971298    3.5647333   -1.5386498 
C     1.2054139    3.2491375   -1.6110596 
C     2.1103963    3.1331732    0.6963430 
C     2.2588149    2.8393652   -0.6715447 
C     1.0765353    2.0558187    2.5041954 
C     2.2432686    2.0356680    1.6267699 
C     0.4085969    0.8373888    2.8610682 
C    -1.7196893    1.8276615    2.0268444 
C    -1.0179561    0.6868849    2.6265395 
C    -2.7048049    2.2826123   -0.2406154 
C    -2.7081731    1.5265153    0.9912505 
C    -1.4102846    2.3349175   -2.1846306 
C    -2.4592092    1.5962227   -1.4719515 
C     0.9785804    2.1082397   -2.4771980 
C    -0.3262388    1.5688306   -2.7173436 
C     2.7708204    1.5470723   -1.0664566 
C     2.0791963    1.1894624   -2.2833910 
C     2.8201170    0.7955343    1.2630167 
C     3.1212138    0.5151546   -0.1425205 
C     1.2444400   -0.2988896    2.8560797 
C     2.4792936   -0.2865872    2.1198395 
C     0.7088832   -1.6546880    2.8390746 
C    -1.5636332   -0.6794359    2.5200328 
C    -0.6830680   -1.8651379    2.6320375 
C    -3.1454324    0.2182136    0.8563414 
C    -2.7694068   -0.8375964    1.7776253 
C    -2.6062133    0.1960091   -1.5767440 
C    -3.2895884   -0.3955896   -0.4625983 
C    -0.4994871    0.1154439   -2.9043830 
C    -1.6703667   -0.5991810   -2.3603022 
C     1.9662284   -0.1146330   -2.6791795 
C     0.6800153   -0.6337407   -3.1397467 
C     3.1237755   -0.8791896   -0.6144448 
C     2.6412553   -1.1592413   -1.9313016 
C     2.6994776   -1.6275921    1.6946660 
C     1.6866527   -2.4976541    2.2474936 
C     2.9508001   -1.9463820    0.3452804 
C     1.3404764   -3.4492194    1.2527495 
C     2.1523145   -3.1572247    0.0582146 
C    -1.0145610   -3.0929655    1.9202608 
C     0.0008913   -3.7894578    1.1203130 
C    -3.0873995   -2.0739299    1.1354316 
C    -3.2867992   -1.7761129   -0.2804765 
C    -2.2270085   -3.1624063    1.1899494 
C    -1.6111641   -2.0430074   -2.1010898 
C    -0.5688127   -3.9960270   -0.2204309 
C    -2.4562674   -2.6286107   -1.0822633 
C    -1.9259444   -3.6080702   -0.1824907 
C     0.7183234   -2.0261480   -2.8929157 
C     1.9357740   -2.3648937   -2.2054400 
C     1.6087747   -3.3343142   -1.2083782 
C    -0.3688384   -2.7401354   -2.3264797 
C     0.1853252   -3.6716329   -1.3531007 
