60 

C    -0.8644266   -4.2903839    0.5566847 
C    -1.7635543   -3.7338376   -0.3562153 
C    -1.0047456   -3.2011111   -1.5202216 
C     0.4389495   -4.1583333    0.0253997 
C     0.3723057   -3.4861636   -1.2844375 
C     1.2456754   -3.5353054    1.0214829 
C    -0.9284897   -3.4229298    1.7691272 
C     0.3603600   -2.9108149    2.0263450 
C    -2.6415974   -2.8378087    0.3459608 
C    -2.0289164   -2.5409770    1.6580108 
C    -3.2320789   -1.8453057   -0.3770483 
C    -1.4016399   -1.9843921   -2.1167428 
C    -2.7211481   -1.5076347   -1.7287084 
C    -0.3923194   -1.0024293   -2.5379603 
C     1.3804599   -2.5626914   -1.6665791 
C     1.0226567   -1.3034754   -2.3307771 
C     2.3502538   -2.8572377    0.6059416 
C     2.5533445   -2.5624928   -0.8180917 
C     2.8427047   -1.7293250    1.3678042 
C     0.5642682   -1.5223655    2.3651222 
C     1.8924073   -0.9420069    2.1180306 
C    -1.9138140   -1.1815336    2.0591630 
C    -0.6063482   -0.6672861    2.4814503 
C    -3.6080796   -0.6210016    0.2765545 
C    -2.9111183   -0.2590297    1.5017493 
C    -3.0839384   -0.1888902   -1.9258428 
C    -3.7729083    0.3442137   -0.7492628 
C    -0.8132925    0.3966899   -2.6952953 
C    -2.1488465    0.8038223   -2.3674304 
C     0.1506646    1.4351915   -2.6197405 
C     2.0143221   -0.2025683   -2.3415744 
C     1.5489674    1.1387983   -2.4739437 
C     3.4780997   -1.5272483   -0.8644622 
C     3.7872875   -1.1044325    0.5154928 
C     3.2851913   -0.3575675   -1.6601128 
C     3.9309905    0.2661358    0.5017198 
C     3.8065727    0.7439767   -0.8906257 
C     2.0614492    0.5215490    2.1136032 
C     3.1461933    1.0939137    1.3441056 
C    -0.4127757    0.7764750    2.6025386 
C     0.9164375    1.3654744    2.4123499 
C    -2.7448878    1.1097234    1.7395974 
C    -1.5663568    1.6162931    2.4403978 
C    -3.3719147    1.6750428   -0.5801154 
C    -2.4195373    2.0288326   -1.6493480 
C    -3.1049677    2.1104836    0.7372176 
C    -0.1363465    2.7235886   -2.0271147 
C    -1.4007694    2.9929807   -1.4201297 
C     2.1492292    2.2547257   -1.7696144 
C     3.1814612    1.9887138   -0.8495478 
C     2.9125051    2.3038394    0.5702930 
C     1.1055555    3.1838268   -1.4337581 
C     0.9917753    2.7638215    2.0005424 
C     1.8865973    3.1295733    0.9035050 
C     1.0646825    3.7568048   -0.1409108 
C    -1.4276521    2.9937557    2.0943139 
C    -2.2486131    3.2101691    0.9100215 
C    -1.4172687    3.7213753   -0.1559201 
C    -0.1730970    3.5317120    1.8373418 
C    -0.1799189    4.0650771    0.4496646 
