60 

C    -1.5318413    4.0585907    0.5884322 
C    -0.1295027    4.1809358    0.3861064 
C     0.2193305    3.7614048   -0.9458192 
C    -2.0817926    3.4285996   -0.5546929 
C    -1.0078311    3.2292636   -1.5244202 
C    -2.7837565    2.2471521   -0.1453537 
C    -1.7068723    3.1377233    1.6964514 
C    -2.5882414    2.0821416    1.2948051 
C     0.5597474    3.5565337    1.5023771 
C    -0.4485771    2.8023300    2.2750015 
C     1.7925546    2.9988045    1.2923604 
C     1.4805422    3.1324412   -1.1828344 
C     2.3621711    2.9358085   -0.0544572 
C     1.5118522    2.1327524   -2.2047581 
C    -0.9903003    2.0814075   -2.3577191 
C     0.2986789    1.6583330   -2.8142037 
C    -2.8672528    1.1055523   -0.9875128 
C    -2.0483411    1.0529416   -2.2058571 
C    -3.1977695   -0.1085493   -0.3322698 
C    -2.4610822    0.8067759    1.8665214 
C    -3.0196877   -0.2672794    1.0987847 
C    -0.1903566    1.4705137    2.7303084 
C    -1.2996804    0.5215311    2.7078330 
C     2.1596018    1.7599492    1.9995368 
C     1.1798222    0.9502763    2.6527965 
C     3.2432259    1.8317505   -0.0492817 
C     3.1677129    1.1464783    1.2316576 
C     2.4152798    0.9868044   -2.1503803 
C     3.2554470    0.8247579   -1.0502348 
C     0.5186820    0.3024165   -3.2696191 
C     1.7911303   -0.1614020   -2.7720730 
C    -1.8455366   -0.2093332   -2.7877312 
C    -0.5550430   -0.5714076   -3.3714389 
C    -2.9813039   -1.3969926   -0.9377435 
C    -2.3720693   -1.4429602   -2.1939180 
C    -2.7037595   -1.6257092    1.3505724 
C    -2.6424742   -2.3579536    0.0887561 
C    -1.0116099   -0.8307071    2.9704155 
C    -1.8043192   -1.9333740    2.3921043 
C     1.4335276   -0.4917254    2.7286481 
C     0.3361003   -1.3174081    3.1064293 
C     3.2172059   -0.2553692    1.0276131 
C     3.2981147   -0.4933334   -0.3956482 
C     2.4689287   -1.1031578    1.8791476 
C     1.9324335   -1.4766854   -2.2369612 
C     2.6790159   -1.6277905   -0.9758422 
C    -0.3180519   -1.9559595   -3.1392026 
C    -1.4577834   -2.5129188   -2.4502460 
C     0.8673584   -2.4132166   -2.5047370 
C    -1.6446511   -3.3596337   -0.1208950 
C    -1.0049998   -3.3790193   -1.4244909 
C     0.4588741   -3.4047207   -1.5263727 
C    -1.0069458   -3.0884399    2.2971647 
C     0.3134071   -2.7284764    2.7930297 
C    -0.8419588   -3.7566121    1.0250674 
C     2.2640144   -2.4210527    1.3597789 
C     2.2990243   -2.6610677   -0.0610798 
C     1.2084409   -3.6011468   -0.3694754 
C     1.2502231   -3.2605624    1.9136789 
C     0.5609445   -3.9700057    0.8418912 
