60 

C    -1.6083149    4.4249649    0.5298842 
C    -0.2642800    4.7781101    0.3274176 
C     0.1679458    4.3641188   -1.0074689 
C    -2.0123465    3.6852619   -0.6309873 
C    -0.9239330    3.6618947   -1.6188846 
C    -2.5710066    2.4341090   -0.2212807 
C    -1.6410908    3.4707574    1.6446080 
C    -2.3532073    2.3183747    1.2324085 
C     0.5594170    4.0800513    1.2762002 
C    -0.3056879    3.2508582    2.1192840 
C     1.4200167    3.6913585   -0.8657785 
C     1.6425277    3.4589545    0.5891202 
C     1.7048453    2.6505559   -1.7290845 
C    -0.6895757    2.4602549   -2.3498348 
C     0.6797197    2.1119663   -2.5973944 
C    -2.4867839    1.2773997   -1.0248642 
C    -1.6247059    1.3274824   -2.2061737 
C    -2.7784871    0.0007348   -0.3913392 
C    -2.0455479    1.0575775    1.7634788 
C    -2.5994208   -0.0796505    1.0473550 
C     0.1235022    1.9515114    2.4861077 
C    -0.8504826    0.8756104    2.5524124 
C     2.1683443    2.2276385    1.0343112 
C     1.5033838    1.5621639    2.1685068 
C     2.5506439    1.5444063   -1.3152980 
C     2.8671541    1.3661972    0.0613576 
C     1.0743789    0.7672635   -2.8976244 
C     2.2615891    0.4077186   -2.1344690 
C    -1.2532858    0.0845663   -2.7390792 
C     0.1166308   -0.2004725   -3.1233517 
C    -2.6626409   -1.2320469   -1.1538948 
C    -1.8410592   -1.1673993   -2.3178254 
C    -2.7423682   -2.5031599   -0.4721560 
C    -2.4337701   -1.3356587    1.6638485 
C    -2.7106262   -2.5235428    0.9690594 
C    -0.4206656   -0.4835103    2.8492352 
C    -1.2890081   -1.5605075    2.5497696 
C     1.9111584    0.2637206    2.5003642 
C     0.9670899   -0.7664906    2.9291582 
C     3.2467871    0.0586918    0.4438432 
C     2.9655828   -0.3861882    1.7861751 
C     2.4778428   -0.9345658   -1.6982611 
C     3.1231226   -1.0774189   -0.4342700 
C     0.3818848   -1.5912736   -2.8603750 
C    -0.8929244   -2.2243387   -2.5947574 
C     1.5634447   -1.9885005   -2.1580265 
C    -1.9735150   -3.6208890   -0.9122024 
C    -0.9498115   -3.4436617   -1.8932253 
C    -1.7746671   -3.5370087    1.4155469 
C    -0.8085490   -2.8977042    2.2737216 
C    -1.3586260   -4.2515714    0.2788912 
C     1.4694436   -2.0393420    2.4852874 
C     2.6975995   -1.7696149    1.7692518 
C     2.8365277   -2.2355041    0.4128953 
C     0.6105411   -3.1015351    2.0600883 
C     1.4545025   -3.2035099   -1.3785606 
C     0.2788366   -3.9679233   -1.3693608 
C     0.0163919   -4.3953374    0.0213383 
C     2.0158225   -3.2540861   -0.0191704 
C     1.0097104   -3.8418617    0.8740725 
