60 

C    -1.1677644   -4.1664168    1.0368470 
C    -0.0233342   -3.8806578    1.7894362 
C     1.1452029   -4.0520113    0.9142611 
C    -0.7504683   -4.2919619   -0.3890608 
C     0.6566807   -4.2449356   -0.4459758 
C    -1.5573273   -3.3937401   -1.1666336 
C    -2.2622243   -3.3039081    1.0872639 
C    -2.5999774   -2.9442305   -0.3066571 
C    -2.2066947   -2.0786166    1.8013206 
C     0.1031894   -2.6066421    2.4378003 
C    -0.9835539   -1.6587864    2.4451514 
C     2.0700322   -3.0345289    1.1928590 
C     1.4379296   -2.1090034    2.1524808 
C     2.8398558   -2.5018950    0.1225564 
C     1.2509960   -3.4875889   -1.4975274 
C     2.4543995   -2.8295932   -1.2261005 
C    -0.9406465   -2.4162079   -2.0817426 
C     0.4352641   -2.5544602   -2.3153445 
C    -1.5402531   -1.0767978   -2.2471215 
C    -3.0337606   -1.6248967   -0.3441216 
C    -2.9160589   -1.0879364    0.9972893 
C    -2.7053845   -0.7621369   -1.4423715 
C    -2.7785876    0.2814919    1.2202129 
C    -0.6841430   -0.2299814    2.5132683 
C    -1.7218387    0.7412009    2.1390458 
C     1.7218387   -0.7412009    2.1390458 
C     0.6841430    0.2299814    2.5132683 
C     3.1887029   -1.1249146    0.1460000 
C     2.7785876   -0.2814919    1.2202129 
C     2.5109020   -1.5913832   -1.9987750 
C     1.2591881   -1.3740487   -2.6134220 
C     3.0782852   -0.5746571   -1.2275861 
C    -0.7248440    0.0567094   -2.6933531 
C     0.7248440   -0.0567094   -2.6933531 
C    -1.2591881    1.3740487   -2.6134220 
C    -3.0782852    0.5746571   -1.2275861 
C    -3.1887029    1.1249146    0.1460000 
C    -2.5109020    1.5913832   -1.9987750 
C    -2.8398558    2.5018950    0.1225564 
C    -2.4543995    2.8295932   -1.2261005 
C    -1.4379296    2.1090034    2.1524808 
C    -2.0700322    3.0345289    1.1928590 
C     0.9835539    1.6587864    2.4451514 
C    -0.1031894    2.6066421    2.4378003 
C     2.9160589    1.0879364    0.9972893 
C     2.2066947    2.0786166    1.8013206 
C     2.7053845    0.7621369   -1.4423715 
C     1.5402531    1.0767978   -2.2471215 
C     3.0337606    1.6248967   -0.3441216 
C    -0.4352641    2.5544602   -2.3153445 
C    -1.2509960    3.4875889   -1.4975274 
C     0.9406465    2.4162079   -2.0817426 
C    -1.1452029    4.0520113    0.9142611 
C     0.0233342    3.8806578    1.7894362 
C    -0.6566807    4.2449356   -0.4459758 
C     2.2622243    3.3039081    1.0872639 
C     2.5999774    2.9442305   -0.3066571 
C     1.5573273    3.3937401   -1.1666336 
C     1.1677644    4.1664168    1.0368470 
C     0.7504683    4.2919619   -0.3890608 
