60 

C    -0.3119361    4.6509244    1.4119101 
C     0.9574743    4.6848027    0.8346003 
C     0.8456639    4.4379052   -0.6129329 
C    -1.2421238    4.3584067    0.3480773 
C    -0.5388593    4.2176755   -0.9358994 
C    -2.0816194    3.2943636    0.7757534 
C    -0.3564542    3.4880355    2.3117798 
C    -1.4828978    2.6901370    2.0010543 
C     1.7454460    3.6062597    1.3720303 
C     0.9329618    2.8408360    2.3052738 
C     1.8087194    3.4572120   -0.9755195 
C     2.3726004    2.9159323    0.2997288 
C     1.5081445    2.5354882   -1.9798921 
C    -0.8997745    3.1441181   -1.8296421 
C     0.1445257    2.3876323   -2.4629096 
C    -2.6024730    2.4288206   -0.1655189 
C    -2.0722517    2.3751265   -1.5323583 
C    -2.9960128    1.1128419    0.2350099 
C    -1.4475775    1.2754359    2.1364286 
C    -2.4348532    0.4929929    1.4004868 
C     1.0175793    1.4275402    2.3047964 
C    -0.1884749    0.6208632    2.4496554 
C     2.6357013    1.5471389    0.4140674 
C     2.0985333    0.8041338    1.5542572 
C     2.1379157    1.2496699   -1.9950010 
C     2.8241686    0.7982866   -0.8300291 
C    -0.0067672    0.9989162   -2.8160733 
C     1.2508725    0.3088429   -2.6259671 
C    -2.2383050    1.0253375   -1.9667886 
C    -3.0439145    0.3404289   -0.9652485 
C    -1.1985284    0.2585060   -2.6045909 
C    -3.0651024   -1.0149906   -0.9007967 
C    -2.4045314   -0.9389126    1.4733386 
C    -3.0356190   -1.6595403    0.3987899 
C    -0.0969300   -0.8217468    2.4227682 
C    -1.3011619   -1.6133955    2.1781749 
C     2.2378459   -0.6101029    1.6042283 
C     1.2236841   -1.4337355    2.2523324 
C     3.0575443   -0.5583465   -0.7271346 
C     3.0359733   -1.2185482    0.5560001 
C     1.3375613   -1.0958391   -2.4184474 
C     2.4972202   -1.5173679   -1.6801793 
C    -1.1390621   -1.2078924   -2.4484621 
C    -2.2622799   -1.8284373   -1.8147987 
C     0.1397001   -1.9296781   -2.3740876 
C    -2.7258565   -3.0121200    0.1481490 
C    -2.1683202   -3.1034826   -1.2334097 
C    -1.1703052   -3.0346959    2.0348576 
C    -1.9208135   -3.7366177    0.9920350 
C     1.3064284   -2.8600395    2.1029331 
C     0.1233199   -3.6244028    2.0495978 
C     2.9814916   -2.6013684    0.3102325 
C     2.5616835   -2.7903499   -1.1013336 
C     2.2139843   -3.4370644    1.1014145 
C     0.2228745   -3.2783206   -1.7494731 
C    -0.9770918   -3.8509886   -1.1838602 
C    -0.9551650   -4.4625766    0.1638208 
C     0.2300048   -4.5434555    0.8711746 
C     1.4704229   -3.6874790   -1.1128563 
C     1.4450165   -4.3031158    0.2284537 
