60 

C     0.4656061   -4.8076044    0.9924848 
C    -0.8824675   -4.3317733    1.0861572 
C    -1.4264111   -4.2154223   -0.2181660 
C     0.8439139   -4.7711503   -0.4309002 
C    -0.3028493   -4.4180818   -1.1820104 
C     1.9771168   -3.9302431   -0.5562402 
C     1.2921128   -3.8707696    1.6875177 
C     2.3056747   -3.4236362    0.8004413 
C    -0.9166024   -3.1448954    1.9180492 
C     0.4573444   -2.8415167    2.2991050 
C    -1.7864165   -2.0725455    1.6225466 
C    -2.1638008   -3.0828302   -0.5967624 
C    -2.5007337   -2.0523118    0.3452247 
C    -0.3118189   -3.3053615   -2.0648309 
C    -1.5859592   -2.6252819   -1.8626863 
C     1.9867939   -2.8030039   -1.4266124 
C     0.8541563   -2.4498599   -2.2381413 
C     2.6293448   -2.0590620    0.7139769 
C     2.5953400   -1.7035677   -0.6915946 
C     0.8875961   -1.4877639    2.3746056 
C     2.0801784   -1.0946877    1.6332212 
C    -1.4810666   -0.8000708    2.2523000 
C    -0.1106341   -0.4628255    2.5940763 
C    -2.3748088    0.2600528    2.0020474 
C    -2.9285585   -0.7623791   -0.1846400 
C    -3.0523814    0.3250685    0.7016508 
C    -1.7644548   -1.3364494   -2.2830961 
C    -2.6212261   -0.4331901   -1.5517537 
C     0.6597033   -1.0333597   -2.5853710 
C    -0.6642200   -0.5637447   -2.8072014 
C     2.4686075   -0.3739151   -1.0689770 
C     1.5960989    0.0001673   -2.1587876 
C     2.2919112    0.2733397    1.3208514 
C     2.7346464    0.5984182   -0.0292478 
C     0.2996937    0.9343816    2.6425089 
C     1.5853864    1.3099763    2.0597856 
C    -2.0409694    1.5678821    2.3735458 
C    -0.7084911    1.9430505    2.6789387 
C    -3.0077715    1.7023554    0.2632213 
C    -2.5293292    2.4888102    1.3556531 
C    -2.2647697    0.9009280   -1.9166102 
C    -1.0250967    0.8186374   -2.6723462 
C    -2.5125773    2.0100625   -1.0569938 
C     1.3116492    1.4158637   -2.3399246 
C    -0.0633086    1.8445496   -2.6047208 
C     2.8061251    1.9215265   -0.4304472 
C     2.1600391    2.3510002   -1.6673694 
C     1.8356387    2.6647352    1.7168079 
C     2.6173114    2.9615120    0.5410200 
C    -0.4934172    3.2819300    2.1092942 
C    -1.6342848    3.5660444    1.2106166 
C     0.7816368    3.6873632    1.7554885 
C    -1.6880280    3.1593955   -1.2233568 
C    -0.5190666    3.1168634   -2.1015841 
C    -1.3558068    4.0391872   -0.1013639 
C     1.7688957    3.7260590   -1.4686826 
C     2.1420351    4.1280698   -0.1093973 
C     0.9574624    4.5525870    0.5837297 
C     0.4166534    4.0770216   -1.6420411 
C    -0.0913461    4.6304642   -0.3630089 
