60 

C     1.3960771   -1.4145261   -3.4017936 
C     1.2837119   -2.5904993   -2.7029686 
C    -0.1431537   -2.9994765   -2.6685606 
C     0.0324854   -0.9891781   -3.7620877 
C    -0.9087507   -1.8898786   -3.1595810 
C    -0.0515552    0.3993464   -3.6437915 
C     2.0527746   -0.2894709   -2.8238502 
C     1.2907615    0.8614940   -3.2689264 
C     2.5390967   -0.3203627   -1.4742677 
C     1.8291933   -2.7229158   -1.3982644 
C     2.4315586   -1.5897950   -0.7324330 
C    -0.3826136   -3.5843790   -1.4246027 
C     0.8913947   -3.5761867   -0.6798911 
C    -1.5574769   -3.2266150   -0.7185745 
C    -1.9585765   -1.3299360   -2.3437744 
C    -2.3288276   -2.0901829   -1.1862935 
C    -1.2012449    1.0215494   -3.0352891 
C    -2.1363050    0.1392561   -2.3166059 
C    -1.0147539    2.3661161   -2.5998522 
C     1.4504605    2.0667978   -2.6505649 
C     0.3119733    2.9223480   -2.5489728 
C     2.6025826    0.9579807   -0.7360838 
C     2.2069770    2.1547590   -1.4061842 
C     2.6025826    0.9579807    0.7360838 
C     2.4315586   -1.5897950    0.7324330 
C     2.5390967   -0.3203627    1.4742677 
C     0.8913947   -3.5761867    0.6798911 
C     1.8291933   -2.7229158    1.3982644 
C    -1.5574769   -3.2266150    0.7185745 
C    -0.3826136   -3.5843790    1.4246027 
C    -2.8343983   -1.4454390    0.0000000 
C    -2.3288276   -2.0901829    1.1862935 
C    -2.7780830    0.7042687   -1.1820385 
C    -3.0516816   -0.0832488    0.0000000 
C    -1.7072626    2.9077770   -1.4427743 
C    -2.5405242    2.0607424   -0.7344451 
C     0.4636236    3.7275550   -1.3824175 
C     1.6621302    3.2975484   -0.6933648 
C    -0.7926331    3.7902075   -0.6999653 
C     2.2069770    2.1547590    1.4061842 
C     1.6621302    3.2975484    0.6933648 
C     1.4504605    2.0667978    2.6505649 
C     2.0527746   -0.2894709    2.8238502 
C     1.2907615    0.8614940    3.2689264 
C     1.2837119   -2.5904993    2.7029686 
C    -0.1431537   -2.9994765    2.6685606 
C     1.3960771   -1.4145261    3.4017936 
C    -1.9585765   -1.3299360    2.3437744 
C    -0.0515552    0.3993464    3.6437915 
C    -0.9087507   -1.8898786    3.1595810 
C     0.0324854   -0.9891781    3.7620877 
C    -2.7780830    0.7042687    1.1820385 
C    -2.5405242    2.0607424    0.7344451 
C    -2.1363050    0.1392561    2.3166059 
C    -1.2012449    1.0215494    3.0352891 
C    -0.7926331    3.7902075    0.6999653 
C     0.4636236    3.7275550    1.3824175 
C     0.3119733    2.9223480    2.5489728 
C    -1.7072626    2.9077770    1.4427743 
C    -1.0147539    2.3661161    2.5998522 
