60 

C    -2.9745098   -3.1668551    0.3558330 
C    -1.7343127   -3.8432062    0.2718016 
C    -0.9167895   -3.4716242    1.3785487 
C    -2.9340901   -2.2531733    1.4792893 
C    -1.6411583   -2.3686878    2.0697071 
C    -3.2872978   -0.9497486    1.0266719 
C    -3.0651440   -2.3393978   -0.8070096 
C    -3.4212677   -1.0234816   -0.4338123 
C    -1.1810058   -3.6276273   -1.0709911 
C    -1.9325761   -2.5340266   -1.6817197 
C     0.1700859   -3.6672364   -1.2309016 
C     0.4952702   -3.4577117    1.2446178 
C     1.0564044   -3.8223285   -0.0573757 
C     1.2100791   -2.4876013    1.9929289 
C    -0.9168412   -1.2127829    2.5296666 
C     0.4897348   -1.3686762    2.6076495 
C    -2.7060263    0.2212439    1.6008001 
C    -1.4763730    0.1366407    2.3733912 
C    -2.9697348    1.3925016    0.8738168 
C    -2.9894990    0.0561513   -1.2151169 
C    -3.2139806    1.3006913   -0.5641058 
C    -1.2527764   -1.4074049   -2.2484563 
C    -1.8533231   -0.0808952   -2.1160004 
C     0.8266846   -2.7476421   -2.1460785 
C     0.1864187   -1.5114771   -2.5128826 
C     2.3250785   -3.3787360   -0.4343229 
C     2.2054061   -2.7872957   -1.7964695 
C     2.4951889   -1.9949571    1.5816919 
C     3.0873571   -2.4606969    0.3593535 
C     1.3362462   -0.2288656    2.6062645 
C     2.5850546   -0.6081691    1.9453188 
C    -0.6259182    1.3143256    2.4355789 
C     0.8132224    1.0900212    2.5720651 
C    -2.3139228    2.6448008    1.1389446 
C    -1.1004770    2.6252929    1.9105680 
C    -2.7600532    2.4715247   -1.1311924 
C    -2.4340495    3.4317098   -0.0700480 
C    -1.0660953    1.1158839   -2.3733881 
C    -1.6589084    2.4095030   -2.0632512 
C     1.0048982   -0.2961684   -2.5653745 
C     0.3931025    1.0234213   -2.4407849 
C     2.9740264   -1.6517851   -1.8504557 
C     3.6297074   -1.4756327   -0.5321871 
C     2.3999951   -0.4058786   -2.2382653 
C     3.2051252    0.3345411    1.0841935 
C     3.6006548   -0.1153670   -0.2323358 
C     2.9766626    0.5831425   -1.3662745 
C     1.7313553    2.1042120    2.1027286 
C     2.8011719    1.6749774    1.1887863 
C    -0.1264272    3.6511699    1.5680074 
C     1.2743212    3.3562562    1.6988192 
C    -1.3493965    4.1688697   -0.5136309 
C    -0.8398119    3.5271538   -1.7737298 
C    -0.2702892    4.4050284    0.3350833 
C     1.1995929    2.1553956   -1.9668079 
C     2.4341461    1.8603373   -1.2351309 
C     2.6932366    2.5169210    0.0295380 
C     1.9126523    3.6358713    0.4058984 
C     0.5559088    3.4061942   -1.6547097 
C     0.9432666    4.1313551   -0.4447529 
