60 

C     2.0402227    3.7785435    0.2021186 
C     3.0168714    2.7425801    0.0766594 
C     2.7775721    2.0732418   -1.1599538 
C     1.1882318    3.8099566   -0.9494447 
C     1.5951372    2.7227299   -1.7837588 
C    -0.1711236    3.8384856   -0.4724488 
C     1.2371194    3.5172894    1.3516035 
C    -0.1400854    3.5774616    0.9771712 
C     2.9757316    1.9591854    1.2839755 
C     1.7744745    2.3575486    2.0266488 
C     3.2834145    0.6252646    1.1900795 
C     2.9828494    0.6717126   -1.2709495 
C     3.4914563    0.0023209   -0.1040947 
C     2.1490728   -0.1114359   -2.1929803 
C     0.6237963    1.9264070   -2.4626597 
C     0.9230925    0.5174531   -2.7475333 
C    -1.1318081    3.1949949   -1.2211987 
C    -0.7490148    2.3326138   -2.3219802 
C    -2.3063986    2.6299566   -0.5850797 
C    -1.0691126    2.6870937    1.5628248 
C    -2.3270851    2.4235669    0.8329060 
C     0.8982667    1.3751555    2.5357777 
C    -0.5436869    1.6440461    2.4556336 
C     2.6128654   -0.3543571    2.0168394 
C     1.3818213   -0.0270836    2.6265132 
C     3.3526874   -1.4111317    0.0727060 
C     2.8536820   -1.6599235    1.4235726 
C     2.2190483   -1.5176305   -2.1035062 
C     2.9016779   -2.1988875   -0.9971491 
C     1.0654537   -2.3525351   -2.4469428 
C    -0.1741286   -0.3247961   -3.0755711 
C    -0.1355944   -1.7423511   -2.8118017 
C    -1.8244253    1.3990682   -2.4834047 
C    -2.8494176    1.6387663   -1.4795073 
C    -1.5430640    0.0987552   -2.8875055 
C    -3.5943134    0.5657118   -0.9658373 
C    -3.2063895    1.4114465    1.3208602 
C    -3.9051951    0.5578199    0.4104804 
C    -1.4359135    0.5956204    2.8270167 
C    -2.7835415    0.5889930    2.4342967 
C     0.4182389   -1.1164386    2.7668155 
C    -0.9537681   -0.7967488    2.8799534 
C     1.9835362   -2.7249675    1.6569080 
C     0.7118014   -2.4199558    2.2813499 
C     2.1737396   -3.3882421   -0.6909627 
C     1.0031139   -3.4645264   -1.5865009 
C     1.7447081   -3.6738498    0.6059214 
C    -0.3268578   -3.1743474    1.5697613 
C    -0.1735561   -3.7386622   -0.8215337 
C     0.2976847   -3.8859515    0.5339965 
C    -1.3802634   -2.1496050   -2.2118221 
C    -2.2737327   -1.0199382   -2.3186214 
C    -3.2523165   -0.8114495   -1.3589462 
C    -1.3882234   -3.0141242   -1.0666539 
C    -3.7614665   -0.8235219    0.8872948 
C    -3.1221255   -0.7899690    2.1248106 
C    -1.9930577   -1.6345435    2.3447671 
C    -1.6486755   -2.6565010    1.4059679 
C    -3.2715100   -1.6526282   -0.1711519 
C    -2.2415168   -2.6276867    0.0642703 
