60 

C     0.4990641    4.5952096   -0.3771898 
C     0.2858803    3.9591641   -1.6864196 
C    -1.0460828    3.6094792   -1.7779847 
C    -0.6828876    4.3752220    0.4245919 
C    -1.6869331    3.8823864   -0.4489288 
C    -0.3190500    3.5937346    1.5973425 
C     1.5690255    3.9239201    0.2274396 
C     1.1286830    3.4441963    1.5319294 
C     1.2783051    2.9090273   -1.8671208 
C     2.1178104    2.9364681   -0.6864891 
C     0.9331445    1.6520343   -2.4340390 
C    -1.4307753    2.3009204   -2.1956134 
C    -0.4830901    1.3432268   -2.6670778 
C    -2.4129523    2.7464653   -0.1176458 
C    -2.4312445    1.8332550   -1.2903187 
C    -1.1022470    2.4717643    2.0161097 
C    -2.2672591    2.1301269    1.1867313 
C    -0.4568797    1.3571369    2.7370710 
C     1.7207350    2.3076205    2.0203631 
C     0.9674211    1.3463048    2.7799826 
C     2.7236865    1.7427127   -0.1903752 
C     2.6958307    1.5525475    1.2228329 
C     1.8496600    0.5402840   -2.1970831 
C     2.7566934    0.5718575   -1.0510312 
C     1.4871877   -0.7044111   -2.7328780 
C    -0.9174256   -0.0337307   -2.7295189 
C     0.0884286   -0.9825144   -3.0790383 
C    -2.7654117    0.4782261   -1.1765177 
C    -2.0912253   -0.5062980   -2.0110172 
C    -2.8325223    0.8611508    1.2921693 
C    -3.2888805    0.1017653    0.0998957 
C    -1.1280656    0.0618340    2.8910279 
C    -2.4090195   -0.1062974    2.2756576 
C    -0.3512393   -1.1446317    3.0512715 
C     1.7199073    0.1116428    2.7760137 
C     2.7706320    0.2421330    1.7746788 
C     1.0881954   -1.1051048    2.9385074 
C     3.1221741   -0.6765848   -0.4705368 
C     3.0852743   -0.8435649    0.9589222 
C     2.0578760   -1.9569001   -2.2771371 
C     2.7730190   -1.9485084   -1.0706894 
C    -0.1369268   -2.3601856   -2.9590932 
C     1.0919531   -2.9930954   -2.5086864 
C    -2.1958320   -1.9284781   -1.6522396 
C    -1.2347810   -2.8560274   -2.1698318 
C    -3.3364628   -1.2385328    0.4475205 
C    -2.8283807   -1.3803826    1.8093960 
C    -2.7668427   -2.2603341   -0.3675602 
C    -0.7685113   -2.4156579    2.5041210 
C    -2.0080473   -2.5239640    1.8342611 
C    -2.0764028   -3.1801929    0.5284485 
C     1.5493766   -2.2873341    2.2193875 
C     2.5401706   -2.1651903    1.2387971 
C     2.4263755   -2.8907935   -0.0075886 
C     0.3902130   -3.1211185    1.9753568 
C     0.7507321   -3.8929017   -1.4917998 
C    -0.6975724   -3.8961290   -1.3309323 
C    -0.9797839   -3.9080702    0.0577635 
C     1.3672137   -3.8051938   -0.1919424 
C     0.2980663   -3.8696886    0.7967345 
