60 

C    -0.0906143   -4.2236541    1.3089896 
C     0.5728950   -4.1741254    0.0574972 
C     1.7798611   -3.3989986    0.1677127 
C     0.5719140   -3.2519706    2.1480293 
C     1.7795805   -2.8258106    1.4975993 
C    -0.3420680   -2.2055963    2.4396337 
C    -1.4245743   -3.7468519    1.0671492 
C    -1.6393962   -2.5745864    1.8528565 
C    -0.3839370   -3.8424394   -1.0017563 
C    -1.6773721   -3.6620802   -0.3560701 
C     0.0053544   -2.9362172   -2.0016687 
C     2.2303914   -2.5990728   -0.9341389 
C     1.3287759   -2.3497380   -2.0154173 
C     3.1407806   -1.5782644   -0.6248019 
C     2.3030227   -1.5310328    1.7221838 
C     3.2953211   -1.1507945    0.7726156 
C     0.0671329   -0.8145153    2.5227398 
C     1.4794681   -0.4830353    2.3219550 
C    -0.9583879    0.1936928    2.4011802 
C    -2.5216974   -1.5739114    1.4180241 
C    -2.3035658   -0.2093211    1.9178330 
C    -2.5389855   -2.6608611   -0.8006618 
C    -3.1412345   -1.7545894    0.1365820 
C    -0.9203415   -1.9267023   -2.4940106 
C    -2.2012974   -1.8360164   -1.9671532 
C     1.2196889   -1.0070141   -2.5258695 
C    -0.1749304   -0.7157158   -2.7746364 
C     3.2715839   -0.3856739   -1.4209245 
C     2.1520315    0.0227417   -2.2340722 
C     3.7961635    0.1445394    0.7889084 
C     3.9389737    0.5891921   -0.6103739 
C     1.8945912    0.9082372    2.1826631 
C     3.1724232    1.1802222    1.5413218 
C    -0.5531377    1.6002684    2.3200613 
C     0.8672184    1.9464571    2.1643740 
C    -1.5365667    2.5642515    1.9272146 
C    -3.1865585    0.7671129    1.4329066 
C    -2.8525252    2.1513984    1.5528446 
C    -3.5336179   -0.5722647   -0.5915992 
C    -2.8119357   -0.5462974   -1.8450445 
C    -3.7987439    0.5901654    0.0939079 
C    -0.7066808    0.5811637   -2.5889776 
C    -2.1280782    0.6663783   -2.2213974 
C     1.6709088    1.4152106   -2.1932547 
C     0.2294716    1.6819349   -2.2830993 
C     3.6102158    1.9122212   -0.6780398 
C     3.3364384    2.3620642    0.7201190 
C     2.5132075    2.3802130   -1.5104144 
C     1.1541467    3.1661972    1.4405161 
C     2.3364013    3.2805113    0.6523724 
C     1.9014449    3.4283619   -0.7733374 
C    -1.1845681    3.6201241    0.9754784 
C    -0.3210460    2.8732944   -1.6397547 
C     0.1215121    3.7773668    0.6492379 
C     0.5381849    3.6445270   -0.7718614 
C    -3.2421272    2.8327316    0.3534168 
C    -3.6079265    1.8190031   -0.6053460 
C    -2.6340269    1.8666510   -1.6489083 
C    -2.1515443    3.6026198   -0.1072940 
C    -1.7116181    2.9682984   -1.3280399 
