60 

C     1.4797122   -1.2353917   -3.3703229 
C     1.4921797   -2.4403255   -2.7113619 
C     0.1091620   -2.9617299   -2.6695230 
C     0.0696782   -0.9131105   -3.7142014 
C    -0.7665788   -1.9262681   -3.1421736 
C    -0.1344706    0.4453130   -3.5023625 
C     2.0672121   -0.0866158   -2.7881797 
C     1.1773754    1.0076826   -3.1515101 
C     2.6297764   -0.1178265   -1.4661322 
C     2.0642877   -2.5473288   -1.4064187 
C     2.6066602   -1.3920587   -0.7382898 
C    -0.0720205   -3.5792291   -1.4282638 
C     1.1940099   -3.4634145   -0.6821186 
C    -1.2795030   -3.3418345   -0.7285663 
C    -1.8776813   -1.5010867   -2.3372178 
C    -2.1758688   -2.3230492   -1.1943836 
C    -1.3136350    0.9483041   -2.8329407 
C    -2.2111221   -0.0635446   -2.2738940 
C    -1.2210449    2.2908551   -2.2548006 
C     1.2702599    2.1886011   -2.5070129 
C     0.0647202    2.9599988   -2.2151777 
C     2.6899798    1.1578932   -0.7340112 
C     2.2189727    2.3350396   -1.4061131 
C     2.6899798    1.1578932    0.7340112 
C     2.6066602   -1.3920587    0.7382898 
C     2.6297764   -0.1178265    1.4661322 
C     1.1940099   -3.4634145    0.6821186 
C     2.0642877   -2.5473288    1.4064187 
C    -1.2795030   -3.3418345    0.7285663 
C    -0.0720205   -3.5792291    1.4282638 
C    -2.7857633   -1.7623307    0.0000000 
C    -2.1758688   -2.3230492    1.1943836 
C    -3.0527812    0.3562371   -1.1938441 
C    -3.2365855   -0.4783480    0.0000000 
C    -2.1188589    2.6472947   -1.1933334 
C    -3.0259627    1.6788939   -0.7409966 
C    -1.6631287    3.3827427    0.0000000 
C     0.4093473    3.8283226   -1.1662083 
C     1.7604978    3.4753095   -0.6929886 
C    -0.4231300    4.0040739    0.0000000 
C     2.2189727    2.3350396    1.4061131 
C     1.7604978    3.4753095    0.6929886 
C     0.4093473    3.8283226    1.1662083 
C     1.2702599    2.1886011    2.5070129 
C     0.0647202    2.9599988    2.2151777 
C     2.0672121   -0.0866158    2.7881797 
C     1.1773754    1.0076826    3.1515101 
C     1.4921797   -2.4403255    2.7113619 
C     0.1091620   -2.9617299    2.6695230 
C     1.4797122   -1.2353917    3.3703229 
C    -1.8776813   -1.5010867    2.3372178 
C    -0.1344706    0.4453130    3.5023625 
C    -0.7665788   -1.9262681    3.1421736 
C     0.0696782   -0.9131105    3.7142014 
C    -3.0527812    0.3562371    1.1938441 
C    -3.0259627    1.6788939    0.7409966 
C    -2.1188589    2.6472947    1.1933334 
C    -1.2210449    2.2908551    2.2548006 
C    -2.2111221   -0.0635446    2.2738940 
C    -1.3136350    0.9483041    2.8329407 
