60 

C    -0.4484431   -4.4392072    0.4295900 
C     0.0828337   -3.9238605    1.6190331 
C     1.4805472   -3.5591617    1.3600095 
C     0.5679810   -4.2732004   -0.6339656 
C     1.7170514   -3.6476133   -0.0528181 
C    -0.0855248   -3.6657143   -1.7416605 
C    -1.6823925   -3.9501205   -0.0394527 
C    -1.4892779   -3.5350110   -1.4387828 
C    -2.3534792   -2.9008563    0.6388718 
C    -0.5336511   -2.8236619    2.2938312 
C    -1.7755575   -2.2782713    1.8192319 
C     1.7715212   -2.3792093    2.0635466 
C     0.5334009   -1.9006928    2.6863118 
C     2.6540332   -1.4417946    1.5061371 
C     2.3628150   -2.5164260   -0.7244484 
C     2.9589673   -1.5089383    0.0941936 
C     0.5304400   -2.5804060   -2.4155011 
C     1.8066229   -2.0746449   -1.9750023 
C    -0.2389123   -1.4473751   -2.8661606 
C    -2.1693876   -2.3232739   -1.6641800 
C    -2.8381400   -2.0103149   -0.4109573 
C    -1.5731032   -1.2378492   -2.4216464 
C    -3.1372665   -0.7125181   -0.1264827 
C    -2.0293515   -0.8641890    2.0782531 
C    -2.9095950   -0.1680005    1.1939105 
C     0.3239967   -0.5353140    2.9106183 
C    -1.0503661   -0.0322608    2.7808077 
C     2.5477441   -0.0763653    1.8733176 
C     1.4538718    0.3851110    2.6534399 
C     3.1411988   -0.1443128   -0.3599477 
C     3.0031696    0.7409014    0.7517439 
C     1.9162807   -0.6987065   -2.3992322 
C     0.6578337   -0.3144750   -2.9698616 
C     2.6615470    0.2614457   -1.6540587 
C     0.2085277    1.0265441   -2.9647213 
C    -2.0127438    0.1396264   -2.1849529 
C    -2.9068908    0.3467786   -1.0983307 
C    -1.1886432    1.2845722   -2.5993586 
C    -2.9087057    1.2591752    1.0571935 
C    -2.9539571    1.5816165   -0.3743845 
C    -1.2245656    1.3740465    2.7860635 
C    -2.1708578    2.0482962    1.9230546 
C     1.2098650    1.7839526    2.6134359 
C    -0.0854265    2.2481412    2.8533960 
C     2.6351762    2.1096453    0.6022148 
C     1.8354892    2.6916641    1.6205475 
C     2.3445528    1.6183631   -1.8443470 
C     1.2115097    2.0083462   -2.6437856 
C     2.4847295    2.6066877   -0.7529174 
C     0.8343902    3.3103723   -2.2083915 
C     1.6343332    3.6829287   -1.0188428 
C    -1.5011653    2.5727530   -2.0590899 
C    -2.3189264    2.7024999   -0.8725862 
C    -0.4881464    3.5901372   -1.9385616 
C    -1.5655475    3.3001214    1.4319064 
C    -0.3108330    3.4476345    2.0573021 
C     0.8857938    3.7476468    1.3187164 
C     0.7490395    4.2129213   -0.0140385 
C    -1.6825445    3.6607937    0.0530490 
C    -0.5718611    4.2210225   -0.6012602 
