60 

C     0.6293316    4.4466930    1.2560727 
C     1.2261757    4.4033902   -0.0778624 
C     0.1841643    4.3543134   -1.0275647 
C    -0.7935611    4.2403781    1.1312158 
C    -1.0719248    4.2331717   -0.2532865 
C    -1.1538387    3.0356159    1.8731611 
C     1.1456140    3.3363355    1.9553881 
C     0.0664276    2.4941622    2.4234655 
C     2.2301210    3.3630102   -0.1039144 
C     2.2105191    2.7008342    1.2171406 
C     2.3205285    2.5371257   -1.2318573 
C     0.1435913    3.3358599   -2.0294501 
C     1.2521905    2.4962676   -2.2200469 
C    -1.8659214    3.2103313   -0.8250809 
C    -1.1453323    2.6612360   -1.9586922 
C    -2.1391334    2.1273545    1.3982454 
C    -2.5955367    2.3136561    0.0120270 
C    -2.1351449    0.7804795    1.9539640 
C     0.2619622    1.1044236    2.5866283 
C    -0.9248191    0.2676360    2.5852792 
C     2.4271713    1.3258002    1.3617390 
C     1.5437857    0.5224519    2.2294365 
C     2.8112014    1.1973765   -1.0780469 
C     3.0114577    0.6327532    0.2151791 
C     1.0942998    1.1051891   -2.6113320 
C     2.1966520    0.3574781   -2.0699268 
C    -1.3188441    1.2913826   -2.3631399 
C    -0.1643878    0.4570538   -2.7195371 
C    -3.1161407    1.1943733   -0.6597100 
C    -2.4740966    0.6659652   -1.8577651 
C    -3.0264668   -0.1825079    1.3740103 
C    -3.5403298    0.0797588    0.0789816 
C    -2.7842637   -1.6166249    1.4514252 
C    -0.7345357   -1.1341179    2.6844170 
C    -1.6908112   -2.0914118    2.1515234 
C     1.6884235   -0.9117779    2.2516836 
C     0.5618433   -1.7284761    2.5926888 
C     3.1561686   -0.7533134    0.2604340 
C     2.6887541   -1.5283520    1.4139327 
C     2.1905597   -1.0478025   -1.9726169 
C     3.0022078   -1.5747706   -0.9124636 
C    -0.2321600   -1.0077651   -2.6114381 
C     0.9979737   -1.7801064   -2.4006648 
C    -2.6014060   -0.7756029   -1.8595563 
C    -3.3880012   -1.1255338   -0.7243755 
C    -3.0514597   -2.1977643    0.1242467 
C    -1.5106380   -1.6167896   -2.2432834 
C    -2.2207647   -3.1910480   -0.3800763 
C    -1.5231763   -2.9395883   -1.6590095 
C    -0.9755105   -3.2933133    1.7371035 
C     0.4121519   -3.1122487    2.0955442 
C    -1.3111435   -3.8979811    0.4948153 
C     2.5726920   -2.8646719    1.0147221 
C     2.7958765   -2.9015630   -0.4532487 
C     1.4385905   -3.6907295    1.3157906 
C     0.9054323   -3.1613473   -2.0016595 
C    -0.3547074   -3.7058357   -1.6503456 
C    -0.2435561   -4.3822490   -0.3304834 
C     1.8483910   -3.7107760   -1.0275441 
C     1.0733537   -4.3477885    0.0737178 
