60 

C    -0.4534671   -3.6727348    1.3688627 
C     0.6520209   -3.2328202    2.0543101 
C     1.8233606   -3.3305370    1.1735822 
C    -0.0549345   -4.0022719   -0.0153213 
C     1.3556253   -3.7260936   -0.1419489 
C    -1.0048685   -3.4132786   -0.8486573 
C    -1.6566701   -2.9069588    1.3622482 
C    -2.0884632   -2.8396146    0.0004593 
C    -1.7844438   -1.7510496    2.2024388 
C     0.6444505   -1.9295578    2.6880098 
C    -0.5712132   -1.1762063    2.8139139 
C     2.5651919   -2.1643325    1.3432517 
C     1.8772158   -1.3066176    2.3518557 
C     3.2116487   -1.5377885    0.2219120 
C     1.7928164   -2.9788035   -1.2479802 
C     2.8081119   -1.9710114   -1.0880863 
C    -0.5870108   -2.6712488   -2.0195183 
C     0.8177302   -2.4748427   -2.2159267 
C    -1.4552271   -1.6710389   -2.5156709 
C    -2.9289721   -1.7966125   -0.4669350 
C    -2.7124524   -1.3177377   -1.8144930 
C    -2.8430043   -0.8735472    1.8398407 
C    -3.4354150   -0.8829742    0.5046794 
C    -2.8145443    0.4604650    2.2864958 
C    -0.4418680    0.2681450    2.9543670 
C    -1.6315373    1.0544854    2.7727804 
C     2.0260353    0.1007300    2.3446385 
C     0.8557166    0.9208011    2.7303700 
C     3.5936792   -0.1818262    0.3925645 
C     3.0416405    0.6316515    1.4977454 
C     3.7144997    0.6756427   -0.7298545 
C     2.5842315   -0.9622850   -2.1121966 
C     1.3048703   -1.2191566   -2.7265253 
C     3.0128843    0.3410023   -1.9378585 
C    -0.9554023   -0.4695245   -3.1021945 
C     0.4271530   -0.1434110   -3.0662146 
C    -3.0530974   -0.0040679   -2.1516389 
C    -1.9624155    0.5520757   -2.9205729 
C    -3.7544982    0.5012921    0.1451033 
C    -3.3850038    1.3207494    1.2472560 
C    -3.4413968    0.9582606   -1.1491943 
C    -1.5792516    2.3871173    2.1873346 
C    -2.5913424    2.4718410    1.1175687 
C     0.8722514    2.2930767    2.3544739 
C    -0.3661915    2.9975179    2.0246974 
C     2.9669134    1.9895612    1.0402261 
C     3.3252770    2.0009506   -0.3470287 
C     1.8970796    2.8043004    1.4627294 
C     2.1289935    1.4674314   -2.2755887 
C     0.8139748    1.2450124   -2.7446905 
C     2.4095789    2.5234496   -1.3187732 
C    -1.6298284    1.7934488   -2.3889254 
C    -2.5983891    2.1190372   -1.3130387 
C    -2.1764185    2.8982463   -0.2063405 
C    -0.2432363    2.2099388   -2.3314640 
C    -0.1275980    3.7771728    0.8273350 
C     1.2702328    3.6695558    0.5056094 
C     1.3908872    3.3881028   -0.8860414 
C    -0.9047315    3.5528710   -0.3220055 
C     0.0488217    3.2340172   -1.4119748 
