60 

C    -1.2439018   -4.5305338    1.2087655 
C    -0.4770324   -5.0291821    0.1231326 
C     0.8937594   -4.5533254    0.2978306 
C    -0.3869396   -3.7448577    2.0362739 
C     0.9649400   -3.7729250    1.5072832 
C    -0.9934276   -2.4514641    2.3099882 
C    -2.2111980   -3.5692338    0.6855192 
C    -2.1934667   -2.3710275    1.4746914 
C    -0.9320948   -4.3433719   -1.0531381 
C    -2.0441687   -3.4475709   -0.7256792 
C     1.3698491   -3.9575156   -0.9241104 
C     0.1872757   -3.8033392   -1.7886689 
C     2.2728492   -2.9020332   -0.8398266 
C     1.7547835   -2.5887302    1.5682054 
C     2.5914450   -2.3068603    0.4415114 
C    -0.2063846   -1.3104795    2.5390310 
C     1.2339400   -1.4199864    2.3105395 
C    -0.8616455    0.0003713    2.4236564 
C    -2.5018353   -1.1431303    0.8989329 
C    -2.0738432    0.0369673    1.6535168 
C    -2.1417524   -2.1564414   -1.3369464 
C    -2.6126476   -1.0334868   -0.5488068 
C     0.0171439   -2.6072786   -2.4815337 
C    -1.2060171   -1.8285253   -2.3740973 
C     2.2399184   -1.7942065   -1.7999264 
C     1.1127156   -1.6483735   -2.6117515 
C     3.0402243   -0.9615893    0.1926471 
C     2.7965855   -0.6172855   -1.1951802 
C     1.9088390   -0.2060706    2.2043364 
C     2.8902631    0.0155049    1.1627361 
C    -0.1214844    1.2398853    2.5711090 
C     1.2915396    1.0871583    2.4755437 
C    -0.7161965    2.5489039    2.2346271 
C    -2.5434646    1.2645714    1.1919468 
C    -2.0186172    2.5310634    1.6287424 
C    -2.5597048    0.2932758   -1.0865445 
C    -2.9245622    1.3599552   -0.2175178 
C    -0.8775540   -0.4655897   -2.6492905 
C     0.5606936   -0.3375148   -2.8020927 
C    -1.6297136    0.6217573   -2.1549370 
C     2.3742146    0.6991950   -1.5267679 
C     1.1998561    0.8481438   -2.3844133 
C     2.8472333    1.3951688    0.7956573 
C     2.0539755    2.0936495    1.8006345 
C     2.6364363    1.7547574   -0.5672609 
C     0.1505466    3.6570183    1.8719203 
C     1.5305987    3.3516857    1.5453281 
C    -0.2636799    4.6745678    0.9146682 
C    -2.3424608    3.4798026    0.5901607 
C    -2.7012027    2.6764937   -0.5971229 
C    -1.4886422    4.4935298    0.2062705 
C    -1.0604725    1.9564947   -2.2631558 
C     0.3987576    2.0665333   -2.3343152 
C    -1.7925630    3.0369549   -1.6505929 
C    -1.1495279    4.2480993   -1.2376782 
C     2.0704467    3.0453622   -0.8120990 
C     1.8444643    3.9799714    0.2742474 
C     0.7869873    4.8479261   -0.0612901 
C     1.0184476    3.2291359   -1.7837678 
C     0.2374720    4.3680247   -1.3309418 
