60 

C     0.5304518   -4.2563995    0.0000000 
C    -0.8207219   -3.8228744    0.0000000 
C    -1.1798608   -3.1858670    1.2375523 
C     1.1072031   -3.6423288    1.1634761 
C     0.0670079   -3.0483838    1.9803498 
C     2.1113210   -2.7248159    0.7357865 
C     1.1072031   -3.6423288   -1.1634761 
C     2.1113210   -2.7248159   -0.7357865 
C    -1.1798608   -3.1858670   -1.2375523 
C     0.0670079   -3.0483838   -1.9803498 
C    -2.1434621   -2.1556033   -1.2551454 
C    -2.1434621   -2.1556033    1.2551454 
C    -2.6785936   -1.6146452    0.0000000 
C    -2.0844580   -1.3214275    2.4230297 
C     0.3174025   -1.9022407    2.7882842 
C    -0.8391490   -1.1835385    3.1896839 
C     2.4170247   -1.5413297    1.4757014 
C     1.5904110   -1.1746789    2.6364072 
C     3.0561138   -0.5263090    0.7326130 
C     2.4170247   -1.5413297   -1.4757014 
C     3.0561138   -0.5263090   -0.7326130 
C     0.3174025   -1.9022407   -2.7882842 
C     1.5904110   -1.1746789   -2.6364072 
C    -2.0844580   -1.3214275   -2.4230297 
C    -0.8391490   -1.1835385   -3.1896839 
C    -2.6915191   -0.0638153   -2.4318282 
C    -3.1359691   -0.2340585    0.0000000 
C    -3.0817132    0.5457372   -1.1986119 
C    -2.6915191   -0.0638153    2.4318282 
C    -3.0817132    0.5457372    1.1986119 
C    -0.7637428    0.1730044    3.6959136 
C    -1.9348788    0.8712634    3.2369521 
C     1.6478940    0.1583286    3.0973112 
C     0.4725005    0.8312820    3.6519495 
C     3.0413331    0.8407454    1.1636853 
C     2.4045254    1.1712737    2.3638952 
C     3.0413331    0.8407454   -1.1636853 
C     2.9504238    1.7016199    0.0000000 
C     1.6478940    0.1583286   -3.0973112 
C     2.4045254    1.1712737   -2.3638952 
C    -0.7637428    0.1730044   -3.6959136 
C    -1.9348788    0.8712634   -3.2369521 
C     0.4725005    0.8312820   -3.6519495 
C    -2.5510599    1.8813764   -1.2029071 
C    -1.8170993    2.0569001   -2.4730108 
C    -2.5510599    1.8813764    1.2029071 
C    -1.8170993    2.0569001    2.4730108 
C    -2.1044618    2.4935040    0.0000000 
C     0.5002768    2.1994938    3.1961605 
C     1.6871186    2.4089366    2.4224036 
C    -0.5967424    2.7522443    2.4601257 
C     2.0489298    2.8068118    0.0000000 
C    -0.8169521    3.2510413    0.0000000 
C     1.3575835    3.1032314    1.2229408 
C    -0.0805840    3.3140215    1.2171815 
C     1.6871186    2.4089366   -2.4224036 
C     0.5002768    2.1994938   -3.1961605 
C    -0.5967424    2.7522443   -2.4601257 
C     1.3575835    3.1032314   -1.2229408 
C    -0.0805840    3.3140215   -1.2171815 
