60 

C    -2.1615139   -3.4370538    0.4875514 
C    -2.0457468   -3.4376435   -0.8964661 
C    -2.7299052   -2.2418968   -1.4064619 
C    -2.9491306   -2.2613370    0.8761769 
C    -3.2773014   -1.5095964   -0.2957775 
C    -2.2861133   -1.6241356    1.9368188 
C    -0.9871000   -3.4891498    1.3291366 
C    -1.0672942   -2.3686266    2.2531129 
C     0.2380026   -3.8252639    0.7569331 
C    -0.7545836   -3.5437988   -1.5127249 
C     0.3380316   -3.9326219   -0.7091195 
C    -1.8402566   -1.5972282   -2.2775300 
C    -0.6109549   -2.3971408   -2.3934990 
C    -1.8280259   -0.1733869   -2.3683849 
C    -3.2215634   -0.0956119   -0.2847865 
C    -2.7499668    0.5671646   -1.5017712 
C    -2.3571235   -0.1962428    2.0544221 
C    -2.9841231    0.5753928    0.9918011 
C    -1.3271462    0.4060766    2.8203314 
C     0.0918758   -1.6764163    2.6801651 
C    -0.1039770   -0.3102495    3.0802146 
C     1.4625029   -3.1837693    1.2395017 
C     1.4106589   -2.0915090    2.1790949 
C     1.6151236   -3.4367708   -1.0624413 
C     2.3684589   -3.1175205    0.1468326 
C     0.6335500   -1.7487450   -2.5865613 
C     1.7887175   -2.3682256   -1.9774239 
C    -0.6157796    0.4628044   -2.8374419 
C     0.6406755   -0.3002771   -2.8398424 
C    -0.5500528    1.8939885   -2.7597010 
C    -2.6531644    1.9764469   -1.4801418 
C    -1.6260096    2.6285152   -2.2174511 
C    -2.7587789    1.9867667    0.9747296 
C    -2.7910256    2.6929125   -0.2368824 
C    -1.0117416    1.8137822    2.6871108 
C    -1.7410284    2.6166915    1.8295206 
C     0.9759569    0.6458191    3.0557062 
C     0.4266381    1.9674029    2.7999138 
C     2.4288137   -1.0864703    2.0726666 
C     2.2065063    0.2730037    2.5186476 
C     3.1653244   -1.9793601   -0.0969462 
C     2.8661992   -1.5332841   -1.4572977 
C     3.2896998   -1.0127276    0.9127501 
C     1.8297005    0.4166372   -2.5435028 
C     2.8909495   -0.1899174   -1.7535248 
C     0.6802396    2.5832378   -2.3874242 
C     1.8210535    1.8279290   -2.2189105 
C    -1.0806877    3.7299181   -1.4050470 
C    -1.7774560    3.7522838   -0.1949286 
C    -1.0748451    3.6598568    1.0515915 
C     0.3444219    3.6439235   -1.4369807 
C     1.0910761    2.8705591    1.9682828 
C     0.3365539    3.7069376    1.0459606 
C     1.0616102    3.7109017   -0.2206819 
C     2.8810148    1.1909074    1.6138565 
C     3.4747708    0.3826159    0.5701916 
C     3.3279116    0.7913691   -0.7647105 
C     2.6941982    2.0470917   -1.0740797 
C     2.3191523    2.4358901    1.3172799 
C     2.2630073    2.9091510   -0.0518579 
