60 

C     0.0550047   -4.4256856   -0.1229870 
C    -0.5104670   -3.9833403   -1.3340449 
C    -1.8447040   -3.4499988   -1.0461913 
C    -0.8538755   -4.0615408    0.9796265 
C    -1.9987811   -3.4613340    0.3871830 
C    -0.0827128   -3.3066285    1.9241043 
C     1.3589041   -4.0132011    0.2255579 
C     1.2953218   -3.4320920    1.5655446 
C     2.1057982   -3.1293092   -0.6014046 
C     0.1799453   -3.0491853   -2.1656815 
C     1.5276716   -2.6449298   -1.8343141 
C    -2.0185579   -2.2525684   -1.7648377 
C    -0.7861728   -2.0113662   -2.5079938 
C    -2.7190823   -1.1318007   -1.1992546 
C    -2.5591611   -2.3229396    0.9852522 
C    -3.1096741   -1.2765206    0.1761207 
C    -0.5670355   -2.0166523    2.4518646 
C    -1.9015754   -1.6626705    2.1064426 
C     0.3667594   -0.9376273    2.7479165 
C     2.1222220   -2.3061066    1.5952945 
C     2.7300623   -2.1518131    0.2788736 
C     1.7634635   -1.1289171    2.3313489 
C     3.1592141   -0.8735758   -0.1674974 
C     1.9180068   -1.3453797   -2.2630283 
C     2.8251513   -0.5004765   -1.5088864 
C    -0.4061655   -0.6988773   -2.8655784 
C     1.0012200   -0.4565625   -2.9090332 
C    -2.4802004    0.2090158   -1.7310415 
C    -1.3264889    0.4283975   -2.6202440 
C    -2.9742336    1.3189366   -0.9879027 
C    -3.1987985   -0.1010434    1.0020330 
C    -2.3510181   -0.2957354    2.1474513 
C    -3.3249788    1.1430134    0.4166700 
C    -0.1338435    0.4384681    2.9239943 
C    -1.5206881    0.7612125    2.6138024 
C     0.7984311    1.5190284    2.8471678 
C     2.5769930   -0.0038865    2.0729521 
C     3.2603886    0.1652367    0.7963276 
C     2.1393719    1.2728216    2.4761583 
C     3.1577344    1.5587486    0.4226084 
C     2.5742719    2.2590029    1.5214998 
C     2.6212849    0.8852636   -1.8684118 
C     1.5143943    0.8899578   -2.7876226 
C     2.7725397    1.9407568   -0.9109818 
C    -0.8070287    1.7357501   -2.7552409 
C     0.6335919    1.9532722   -2.8382449 
C    -2.4161549    2.6532809   -1.1167540 
C    -1.3494333    2.8686797   -2.0071145 
C    -2.8185727    2.2588124    1.1330921 
C    -1.8671512    2.0904716    2.1671050 
C    -2.3396295    3.2515769    0.1846687 
C     0.4516329    2.8343760    2.2781229 
C     1.5583587    3.2421521    1.3822903 
C    -0.8464933    3.1192312    1.9416414 
C    -1.1406723    3.8221217    0.6769587 
C     1.9203262    3.1067320   -1.0498935 
C     0.9515272    3.1304355   -2.0756754 
C    -0.2788144    3.7233881   -1.6024331 
C     1.2824132    3.7585087    0.1176879 
C    -0.0898399    4.0931155   -0.2350676 
