60 

C    -0.4016296   -4.1087904    1.6901690 
C     0.3190139   -4.2560041    0.4535536 
C     1.5554515   -3.5440040    0.5187116 
C     0.3070057   -3.1647889    2.4728075 
C     1.5347070   -2.8228357    1.8025019 
C    -0.5520067   -2.0532647    2.7962876 
C    -1.6519975   -3.4898602    1.3465941 
C    -1.8121462   -2.2810930    2.0929160 
C    -0.5635074   -4.0001352   -0.6555532 
C    -1.8034594   -3.4277500   -0.0832601 
C    -0.0538603   -3.4645249   -1.8441149 
C     2.0495954   -2.8787426   -0.6546998 
C     1.2800389   -2.8811277   -1.8610273 
C     2.8668813   -1.7489191   -0.4398806 
C     2.0950430   -1.5293776    1.9242181 
C     3.0263880   -1.1851823    0.8916509 
C    -0.0352277   -0.7415755    2.9440587 
C     1.3498647   -0.4328209    2.5813692 
C    -0.9985117    0.2943783    2.8420546 
C    -2.5414432   -1.1914092    1.5559568 
C    -2.2732498    0.0604606    2.1728260 
C    -2.4562899   -2.3122416   -0.6958232 
C    -2.9464618   -1.2148983    0.1518866 
C    -0.9062626   -2.6207855   -2.6169646 
C    -2.0408545   -2.0027178   -2.0453707 
C     1.2204510   -1.6681495   -2.6807249 
C    -0.0965580   -1.5553191   -3.1673173 
C     2.9641964   -0.6404241   -1.3916617 
C     1.9457325   -0.4730827   -2.3842472 
C     3.4360326    0.1418638    0.7470296 
C     3.4444121    0.4737540   -0.6864378 
C     1.7041398    0.9470030    2.3228370 
C     2.8144145    1.1996583    1.4250160 
C    -0.6434592    1.6673063    2.7008065 
C     0.7188812    2.0381381    2.4510255 
C    -2.6669117    1.2958732    1.5921175 
C    -1.7436706    2.3390200    2.0359431 
C    -3.1986677    0.0503027   -0.4512061 
C    -3.1341315    1.2922052    0.2730662 
C    -2.0663130   -0.6169941   -2.5245990 
C    -0.7887193   -0.3137792   -3.1375134 
C    -2.6971462    0.3469304   -1.7792547 
C     1.3152551    0.8481742   -2.5421179 
C    -0.1122417    0.9047004   -2.8777118 
C     2.9314102    1.7565912   -0.8602577 
C     2.7757977    2.3203856    0.4904650 
C     1.8942348    1.9993434   -1.8489766 
C     0.9168987    3.2850013    1.7606452 
C     1.9304825    3.3704268    0.6854671 
C    -1.5205507    3.4649785    1.2627587 
C    -0.1948886    4.0320523    1.2732090 
C    -2.6737976    2.3581931   -0.6230705 
C    -2.2256209    1.7121995   -1.8286583 
C    -0.9355661    2.0205379   -2.3978682 
C    -1.9981374    3.4750617   -0.1362144 
C     1.1299541    3.1846158   -1.6445587 
C     1.3500380    4.0153637   -0.4752345 
C     0.0955257    4.5080531   -0.0626101 
C    -0.3041352    3.1993812   -1.9293238 
C    -0.9344228    4.0186443   -0.9316897 
