60 

C    -0.3482831   -4.7173768    0.1141352 
C     1.0159952   -4.3482157   -0.2050046 
C     1.6043387   -3.8403226    0.9733337 
C    -0.6695100   -4.1330270    1.4262901 
C     0.5048539   -3.6492174    1.9772419 
C    -1.7501976   -3.1832379    1.2697681 
C    -1.1736207   -4.0727414   -0.8124282 
C    -2.1289707   -3.2116297   -0.1319288 
C     1.0332975   -3.5366369   -1.4195627 
C    -0.3541807   -3.4660233   -1.8586510 
C     1.8555895   -2.3753612   -1.5132604 
C     2.3323550   -2.6566054    0.9368434 
C     2.6421064   -2.0188633   -0.3242793 
C     0.6183107   -2.3194769    2.5020784 
C     1.8556021   -1.7818113    2.0267139 
C    -1.7315344   -1.9239851    1.9588326 
C    -0.4982439   -1.4363317    2.6015805 
C    -2.5947995   -0.9357445    1.4269797 
C    -2.6240375   -2.0462900   -0.7818159 
C    -3.0562607   -0.9900253    0.0576514 
C    -0.8163627   -2.3149388   -2.4609471 
C    -2.0595740   -1.6601501   -2.0407972 
C     1.4361159   -1.2560428   -2.3824897 
C     0.1021757   -1.2863553   -2.8743284 
C     2.0788145    0.0563860   -2.2873646 
C     3.1538025   -0.7282706   -0.2010599 
C     3.0759628    0.2500135   -1.2808410 
C     2.1216576   -0.4116975    2.0343289 
C     3.0927153    0.0034670    1.0618289 
C    -0.2380201   -0.0045865    2.7027878 
C     1.1064127    0.5204363    2.5030155 
C    -2.5097215    0.4296854    1.8309070 
C    -1.3604187    0.9194590    2.5428703 
C    -3.1566293    0.3655649   -0.4012247 
C    -3.0694628    1.2257660    0.7638335 
C    -1.9684964   -0.2848868   -2.3967477 
C    -0.6683567   -0.0775376   -3.0178340 
C    -2.5566974    0.7763661   -1.6223939 
C     1.3519260    1.2420930   -2.6757380 
C    -0.0688293    1.1572036   -2.9565670 
C     1.5558871    2.5260611   -2.0656839 
C     3.2627827    1.5223182   -0.6987687 
C     3.2056917    1.3592395    0.7607768 
C     2.4942523    2.6563350   -1.0240551 
C     1.3093201    1.9521017    2.2351345 
C     2.3686459    2.3424983    1.3134833 
C     2.0846131    3.3012638    0.2353637 
C    -1.1361767    2.3194449    2.4844400 
C     0.2205536    2.8473960    2.3448586 
C    -2.7538021    2.5590291    0.6430188 
C    -2.0096344    3.1707086    1.7117662 
C    -1.9944884    2.1415640   -1.7083538 
C    -0.7590311    2.3121113   -2.4192167 
C     0.2619725    3.2108105   -1.9458240 
C    -2.2642707    3.0738859   -0.6522927 
C     0.9413114    4.0657564    0.2898585 
C     0.1454246    4.0216438    1.4972819 
C    -1.2076930    4.1848422    1.1250969 
C     0.0087493    4.0670551   -0.8673212 
C    -1.3139318    4.0868829   -0.3253193 
