60 

C    -2.1255773   -3.5541974   -0.5728107 
C    -1.6033977   -3.8674577    0.6906478 
C    -0.2052192   -4.2245572    0.5200678 
C    -1.0130460   -3.6146206   -1.5475932 
C     0.1498772   -4.1045596   -0.8879040 
C    -0.9892369   -2.3710563   -2.2146887 
C    -2.8592076   -2.3612647   -0.7779939 
C    -2.1973317   -1.6281988   -1.8583008 
C    -3.2740316   -1.6264170    0.3455116 
C    -1.6915393   -2.8935739    1.7533416 
C    -2.5950482   -1.8501174    1.6170413 
C     0.5428521   -3.5196177    1.4960302 
C    -0.3457019   -2.5890431    2.2039302 
C     1.8437181   -3.1109961    1.1782281 
C     1.3873156   -3.5390279   -1.2224308 
C     2.3221996   -3.3090839   -0.1709507 
C     0.2586019   -1.6549828   -2.4380715 
C     1.4441755   -2.3339197   -2.0591250 
C     0.2371869   -0.1917380   -2.5283217 
C    -2.2391058   -0.2421689   -1.9391372 
C    -1.0459233    0.4760435   -2.4554022 
C    -3.4819831   -0.2273997    0.2034442 
C    -3.1533949    0.4614034   -1.0159273 
C    -2.2806130   -0.5482347    2.1556377 
C    -3.1008230    0.4032292    1.4514421 
C     0.0671486   -1.2519006    2.4954425 
C    -0.9509685   -0.1929226    2.5371305 
C     2.3425364   -1.8478069    1.6728994 
C     1.4782685   -0.8776098    2.2725674 
C     3.1404325   -2.1849893   -0.4977646 
C     2.5973872   -1.5481141   -1.6568053 
C     3.3219593   -1.4047629    0.6887844 
C     1.4724780    0.5806285   -2.2901967 
C     2.6225141   -0.1357407   -1.7715170 
C     1.3981817    2.0288542   -2.0812472 
C    -1.0835611    1.8954924   -2.3910884 
C     0.1345002    2.6694947   -2.1638000 
C    -3.0982736    1.8675622   -0.9467866 
C    -2.1849674    2.5881849   -1.8090571 
C    -2.8076850    1.7473777    1.4801067 
C    -3.1133668    2.5383185    0.3274385 
C    -0.5647021    1.2284362    2.4642684 
C    -1.5526144    2.1847741    2.0674438 
C     1.8652144    0.5456515    2.2144163 
C     0.8496395    1.6025447    2.3446675 
C     3.5792341   -0.0835759    0.5409554 
C     3.4759676    0.5379622   -0.7985641 
C     3.0752805    0.8683502    1.5051399 
C     2.3868677    2.6941473   -1.2453442 
C     3.3680432    1.8950496   -0.5837623 
C     3.2501648    2.1323250    0.8856924 
C     1.1497021    2.9207551    1.8214553 
C     1.9310587    3.6462511   -0.2720569 
C     2.3380758    3.1337584    1.0602978 
C    -0.2351855    3.7763943   -1.3007309 
C    -1.6435575    3.7016222   -1.0792088 
C    -2.1265821    3.5754614    0.2538311 
C    -1.2011686    3.4070687    1.3606686 
C     0.6074916    4.0663860   -0.1995372 
C     0.1257396    3.7161290    1.1675965 
