60 

C     0.4923133   -4.0747884    0.6707482 
C    -0.2823866   -4.1247611   -0.4852537 
C    -1.6286425   -3.6909185   -0.1479335 
C    -0.3516051   -3.4717675    1.7325142 
C    -1.6546765   -3.2140118    1.2156234 
C     0.3797491   -2.4601622    2.3550143 
C     1.7615430   -3.4368042    0.6835252 
C     1.7634995   -2.5296290    1.8305022 
C     2.3023393   -2.9571779   -0.5311537 
C     0.1322982   -3.3993407   -1.6687078 
C     1.4241409   -2.8713417   -1.7063435 
C    -2.0939445   -2.8564432   -1.1900288 
C    -0.9756411   -2.5689827   -2.1018312 
C    -3.0030325   -1.8703817   -0.8614471 
C    -2.3092406   -1.9851125    1.5297385 
C    -3.2295992   -1.5234295    0.5312912 
C    -0.2220113   -1.1885175    2.6811021 
C    -1.6166177   -0.9629943    2.3353619 
C     0.6948579   -0.0549619    2.8458054 
C     2.5503170   -1.4084353    1.8178635 
C     2.0606784   -0.1640825    2.3965809 
C     3.1401071   -1.7899822   -0.5271182 
C     3.3713682   -1.0799734    0.6682965 
C     1.6536108   -1.5966705   -2.3355146 
C     2.8459204   -1.0199991   -1.7252085 
C    -0.7917363   -1.2475661   -2.5912743 
C     0.5834671   -0.7546372   -2.7599999 
C    -3.0451095   -0.6407108   -1.6364248 
C    -1.8986811   -0.2849637   -2.4218208 
C    -3.6848935   -0.1866453    0.5300735 
C    -3.6886419    0.3330918   -0.8243721 
C    -2.1184642    0.4246118    2.3161170 
C    -3.1789760    0.7959652    1.4075982 
C     0.1715645    1.2493316    2.8981724 
C    -1.2460454    1.4809000    2.7053640 
C     0.9052837    2.3921102    2.3882596 
C     2.7325958    0.9192480    1.7578588 
C     3.5133749    0.3488808    0.6511774 
C     2.1259706    2.2193892    1.6700182 
C     3.0782779    0.3352368   -1.7647671 
C     3.5452059    1.0354682   -0.5676516 
C     0.8425884    0.6885331   -2.8345994 
C     2.1249428    1.2042517   -2.4418864 
C    -1.6043986    1.1176157   -2.4941050 
C    -0.2611189    1.5897601   -2.7117278 
C    -3.2690309    1.6778521   -0.7680245 
C    -3.1055719    2.0471867    0.6401460 
C    -2.3100083    2.1030790   -1.6970736 
C    -1.3807745    2.7956714    2.1510412 
C    -0.0711490    3.3231947    1.9210804 
C    -2.1788551    3.0145889    0.9873549 
C    -0.1320026    2.8898256   -2.0662806 
C    -1.3634428    3.1422013   -1.3393268 
C    -0.0006823    3.8621052    0.5939643 
C    -1.3096756    3.6292774   -0.0317553 
C     2.3040518    2.9726087    0.4508436 
C     3.0051682    2.3510155   -0.6258318 
C     2.2290420    2.4878564   -1.8347876 
C     1.1777662    3.6975014   -0.1318985 
C     1.0946135    3.2868337   -1.5388883 
