60 

C     0.5206534   -0.4630736   -4.6483607 
C    -0.5206534    0.4630736   -4.6483607 
C    -0.0839384    1.6344875   -3.9423181 
C     1.6763492    0.1069840   -3.9306899 
C     1.2840966    1.4114294   -3.4487748 
C     2.0411875   -0.8329319   -2.9543995 
C     0.0839384   -1.6344875   -3.9423181 
C     1.0927517   -1.9757353   -3.0076688 
C    -1.6763492   -0.1069840   -3.9306899 
C    -1.2840966   -1.4114294   -3.4487748 
C    -1.0927517    1.9757353   -3.0076688 
C    -2.0411875    0.8329319   -2.9543995 
C    -0.7592284    2.6525180   -1.8284492 
C     1.6060096    1.8332433   -2.1291516 
C     0.6635579    2.7298399   -1.4544465 
C     2.5362340   -0.4138347   -1.6698648 
C     2.4235948    0.9729435   -1.2651778 
C     2.5458925   -1.4099745   -0.6698885 
C     0.7592284   -2.6525180   -1.8284492 
C     1.7081030   -2.5847689   -0.7683241 
C    -1.6060096   -1.8332433   -2.1291516 
C    -0.6635579   -2.7298399   -1.4544465 
C    -2.5362340    0.4138347   -1.6698648 
C    -2.4235948   -0.9729435   -1.2651778 
C    -1.7081030    2.5847689   -0.7683241 
C    -2.5458925    1.4099745   -0.6698885 
C    -1.3849985    2.9799825    0.5550925 
C     0.9640655    3.1257215   -0.1557606 
C    -0.0816898    3.4360507    0.8315799 
C     2.6291448    1.3100514    0.1316661 
C     2.0773579    2.5487713    0.5808916 
C     2.7106380   -1.0942588    0.7271806 
C     2.8291662    0.2552719    1.1437442 
C     1.3849985   -2.9799825    0.5550925 
C     2.0506592   -2.1030539    1.5120237 
C    -0.9640655   -3.1257215   -0.1557606 
C     0.0816898   -3.4360507    0.8315799 
C    -2.6291448   -1.3100514    0.1316661 
C    -2.0773579   -2.5487713    0.5808916 
C    -2.7106380    1.0942588    0.7271806 
C    -2.0506592    2.1030539    1.5120237 
C    -2.8291662   -0.2552719    1.1437442 
C    -1.4640602    1.7926264    2.7741411 
C     0.4488780    3.2506655    2.1198140 
C     1.8255163    2.7704713    1.9629345 
C    -0.1936654    2.4275763    3.1050355 
C     2.4789569    0.4923947    2.5242542 
C     2.0541592    1.7928119    2.9288201 
C     0.8400920    1.6407365    3.7238256 
C     1.4640602   -1.7926264    2.7741411 
C     1.7162029   -0.4862104    3.2836708 
C     0.6573109    0.2636475    3.9686004 
C    -0.4488780   -3.2506655    2.1198140 
C    -1.8255163   -2.7704713    1.9629345 
C     0.1936654   -2.4275763    3.1050355 
C    -2.4789569   -0.4923947    2.5242542 
C    -1.7162029    0.4862104    3.2836708 
C    -0.6573109   -0.2636475    3.9686004 
C    -2.0541592   -1.7928119    2.9288201 
C    -0.8400920   -1.6407365    3.7238256 
