60 

C     0.6341762   -4.3557271   -1.3534624 
C     1.8916567   -3.7418754   -0.9850763 
C     1.9854845   -3.7098195    0.4183310 
C    -0.1522559   -4.4736162   -0.1332807 
C     0.6693664   -4.1453444    0.9635912 
C    -1.3660535   -3.7189119   -0.2766053 
C    -0.0378422   -3.4223577   -2.1698186 
C    -1.3223881   -3.1097205   -1.6090502 
C     2.0363554   -2.4784043   -1.6793008 
C     0.8293707   -2.2839686   -2.4564665 
C     2.6081995   -1.3479887   -1.0464258 
C     2.3876057   -2.5390755    1.0985939 
C     2.8549426   -1.3826548    0.3960913 
C     0.2782365   -3.2007008    1.9477770 
C     1.4308872   -2.3327827    2.1836675 
C    -1.8816231   -2.9330403    0.7962413 
C    -1.0323771   -2.6080845    1.9516276 
C    -2.8591256   -1.9688856    0.4031081 
C    -1.9195484   -1.8555819   -1.8799826 
C    -2.9148601   -1.4455212   -0.9604324 
C     0.2976774   -0.9967056   -2.6960615 
C    -1.1448210   -0.8157638   -2.5843612 
C     2.3559189   -0.0670380   -1.6759376 
C     1.1858830    0.1400777   -2.5092944 
C     2.9312578    1.0678405   -1.0373344 
C     2.8617643   -0.1198626    1.1229804 
C     3.0850823    1.0706260    0.4044451 
C     1.2693471   -1.0864916    2.7379265 
C     2.0965625    0.0126741    2.3207103 
C    -1.1980434   -1.2963518    2.6077334 
C    -0.0429359   -0.5815856    3.0426618 
C    -3.2142558   -0.9058694    1.2565580 
C    -2.3376058   -0.4823811    2.2947713 
C    -3.3665701   -0.0718704   -0.8953432 
C    -3.6126021    0.2494107    0.4785752 
C    -1.6306296    0.5022869   -2.5346341 
C    -2.7522166    0.8813857   -1.7008321 
C     0.6558386    1.4904314   -2.6623174 
C    -0.7558506    1.6454026   -2.6492900 
C     2.6052292    2.3749314   -1.4341115 
C     1.4367494    2.6257504   -2.2121065 
C     2.6741511    2.3887297    0.8917174 
C     2.5776304    3.2401234   -0.2475657 
C     1.3779042    1.2319999    2.5966347 
C     0.0427295    0.8571282    2.9888324 
C     1.6613735    2.4573537    1.9211023 
C    -2.2625528    0.9613127    2.2212957 
C    -3.0477728    1.3994285    1.0559599 
C    -1.0712937    1.6555264    2.5640507 
C    -2.4808400    2.2108878   -1.1872931 
C    -1.3780312    2.7574741   -1.9384842 
C    -2.5779585    2.4697599    0.2292910 
C     0.8051244    3.7905419   -1.6602270 
C     1.5084798    4.1367855   -0.4022611 
C    -0.5961335    3.7996460   -1.4025942 
C     0.5649582    3.3864873    1.7470889 
C    -0.7916385    2.9068249    1.9407186 
C    -1.6052252    3.3611337    0.8026146 
C     0.5389239    4.2535294    0.6081588 
C    -0.7858162    4.1524910   -0.0129051 
