60 

C     1.0519318   -4.5981353    0.2436527 
C    -0.3664924   -4.5823943    0.0730692 
C    -0.6592077   -4.1798243   -1.2612774 
C     1.6482751   -3.9918087   -0.9536310 
C     0.6140385   -3.7407747   -1.8692761 
C     2.4469141   -2.8726508   -0.5557798 
C     1.3479078   -3.7073806    1.3106692 
C     2.3299157   -2.7531029    0.8999714 
C    -0.9546599   -3.8156094    1.1740554 
C     0.1333834   -3.2171131    1.9457120 
C    -2.0570637   -3.0244697    0.9142168 
C    -1.6220728   -3.1732806   -1.5140841 
C    -2.4749354   -2.7573005   -0.4725382 
C     0.4064667   -2.4325863   -2.4271294 
C    -0.9940527   -2.1104192   -2.3138869 
C     2.4482019   -1.6647777   -1.3141520 
C     1.3601326   -1.3876646   -2.2533563 
C     3.0241807   -0.5588296   -0.6499230 
C     2.3920445   -1.4971074    1.5279377 
C     3.0917322   -0.4991415    0.7942036 
C     0.0619751   -1.8830301    2.4309880 
C     1.2921860   -1.0649947    2.3959113 
C    -2.2710067   -1.8039574    1.6578384 
C    -1.2258130   -1.1850761    2.4071751 
C    -3.0276407   -1.4554836   -0.5080829 
C    -3.1400490   -0.9783165    0.8679151 
C    -1.4421285   -0.7732005   -2.2800113 
C    -2.6555931   -0.4917174   -1.5134211 
C     0.9324412   -0.0143224   -2.4507217 
C    -0.4805598    0.2957354   -2.5293573 
C     2.9160905    0.7651464   -1.1651602 
C     1.8765646    1.0615465   -2.1076989 
C     3.0508839    0.8720265    1.1541218 
C     3.1570203    1.6780777   -0.0614804 
C     1.2075033    0.3142662    2.6601840 
C     2.1570148    1.2777211    2.1498492 
C    -1.2902071    0.2738674    2.5890036 
C    -0.0722776    1.0002276    2.7812616 
C    -3.2937285    0.3660461    1.1205529 
C    -2.3696520    1.0289975    2.0499077 
C    -3.0017619    0.8550023   -1.2511538 
C    -3.5167812    1.2360300    0.0301376 
C    -0.9296988    1.6863624   -2.3727120 
C    -2.1836086    1.9441166   -1.7525665 
C     1.4578541    2.4149551   -2.1796799 
C     0.0434971    2.7483703   -2.3266213 
C     2.6699063    2.9672389   -0.0964925 
C     2.0286382    3.4058234   -1.3086154 
C     1.4918544    2.5634165    2.0329388 
C     0.0952190    2.3736254    2.4085876 
C     1.8395775    3.4639418    1.0230046 
C    -2.1971991    2.3941155    1.6049262 
C    -2.9028346    2.4940463    0.3589135 
C    -2.2848897    3.0536389   -0.7883862 
C    -0.9551994    3.0972908    1.7387689 
C    -0.2041396    3.9742171   -1.6174420 
C     1.0134569    4.3614808   -0.9856899 
C     0.8039471    4.2802196    0.4330194 
C    -1.2322317    3.9362874   -0.6078205 
C    -0.5852698    4.0306323    0.7096543 
