60 

C    -0.5105319    5.1629839    0.8872235 
C     0.8867301    5.1382343    0.6089703 
C     1.1417719    4.9869270   -0.7693997 
C    -1.1729562    4.7656478   -0.3802338 
C    -0.1690273    4.6268326   -1.3813307 
C    -1.9800314    3.6130495   -0.1288222 
C    -0.7334872    4.0724510    1.7742849 
C    -1.7513298    3.2213074    1.2620306 
C     1.5470611    4.0327100    1.3610287 
C     0.5349874    3.3694228    2.1004331 
C     1.9652417    3.8261464   -0.9033100 
C     2.2959225    3.2603871    0.4139496 
C    -0.0153055    3.3613055   -2.0532220 
C     1.3527013    2.9160333   -1.8138082 
C    -2.0853992    2.5377204   -1.0710086 
C    -1.0301270    2.3463148   -2.0478558 
C    -2.6761457    1.3579831   -0.5681394 
C    -1.8354508    1.8575978    1.6657569 
C    -2.6375833    1.0459409    0.8466472 
C     0.5445136    1.9425851    2.2262217 
C    -0.7108862    1.1938111    2.2960617 
C     2.3550937    1.8612116    0.5469611 
C     1.6559520    1.2128168    1.6481637 
C     1.6578237    1.5398428   -1.7747762 
C     2.3982078    1.0300656   -0.6517275 
C    -0.6582386    0.9807830   -2.4170699 
C     0.7426130    0.6305010   -2.4142010 
C    -2.6021324    0.1133337   -1.2556542 
C    -1.5740524   -0.1346003   -2.2046345 
C    -2.6848804   -0.3735204    1.0048451 
C    -2.9356529   -0.9398502   -0.2979426 
C    -0.6840178   -0.2372344    2.3562214 
C    -1.7981599   -1.0593411    1.8643059 
C     1.6975342   -0.2061817    1.7627284 
C     0.6027712   -0.9032028    2.4076019 
C     2.5513445   -0.3702979   -0.5041782 
C     2.4871168   -0.9716582    0.8139322 
C     1.1249462   -0.7305088   -2.4365561 
C     2.1740757   -1.2098518   -1.5933056 
C    -1.1664440   -1.5459886   -2.4029549 
C     0.2110527   -1.8260282   -2.6335382 
C    -2.6559594   -2.2444324   -0.5500836 
C    -1.9033871   -2.6013714   -1.7505101 
C    -1.6733056   -2.5145994    1.6986577 
C    -2.2761545   -3.1335634    0.5368401 
C     0.6465042   -2.3077367    2.4889701 
C    -0.5111747   -3.1529424    2.2413272 
C     2.5221041   -2.3726113    0.9175820 
C     1.7971211   -3.0244482    1.9732926 
C     2.0554547   -2.6450101   -1.4711584 
C     0.8526811   -3.0524986   -2.1866046 
C     2.4038797   -3.2505157   -0.2578503 
C    -1.3131724   -3.8486818   -1.4659241 
C    -1.6523395   -4.2613710   -0.0840985 
C     0.0831239   -4.1223251   -1.6704023 
C    -0.0192679   -4.4150929    1.7187873 
C     1.4126345   -4.3340942    1.5908247 
C     1.7131812   -4.4556053    0.1721149 
C    -0.5495002   -4.8969467    0.4755634 
C     0.5519555   -4.8618354   -0.5210267 
