60 

C     0.7055881   -0.2075855   -4.6417020 
C    -0.7055881    0.2075855   -4.6417020 
C    -0.7806587    1.3908857   -3.9015973 
C     1.4598526    0.7630056   -3.8558663 
C     0.5633390    1.7937804   -3.4613083 
C     2.1985914    0.0988555   -2.7936454 
C     0.7806587   -1.3908857   -3.9015973 
C     1.8035222   -1.2799710   -2.8496326 
C    -1.4598526   -0.7630056   -3.8558663 
C    -0.5633390   -1.7937804   -3.4613083 
C    -1.8035222    1.2799710   -2.8496326 
C    -2.1985914   -0.0988555   -2.7936454 
C    -1.6914202    2.0312289   -1.6904533 
C     0.7098919    2.4326172   -2.2220037 
C    -0.5026925    2.8950070   -1.5416922 
C     2.3830586    0.7234000   -1.5319370 
C     1.8288758    2.0517398   -1.3674701 
C     2.5712518   -0.1070538   -0.3393933 
C     1.6914202   -2.0312289   -1.6904533 
C     2.3139980   -1.5189590   -0.4592254 
C    -0.7098919   -2.4326172   -2.2220037 
C     0.5026925   -2.8950070   -1.5416922 
C    -2.3830586   -0.7234000   -1.5319370 
C    -1.8288758   -2.0517398   -1.3674701 
C    -2.3139980    1.5189590   -0.4592254 
C    -2.5712518    0.1070538   -0.3393933 
C    -2.1637404    2.3108282    0.7185803 
C    -0.3546998    3.5847712   -0.3446022 
C    -1.3362651    3.4572229    0.7107135 
C     1.8972802    2.6411931   -0.0923461 
C     0.9341619    3.6079045    0.2962249 
C     2.5577342    0.5085031    1.0020135 
C     2.3092298    1.8957473    1.0841686 
C     2.2919977   -0.3015573    2.2027635 
C     2.1637404   -2.3108282    0.7185803 
C     2.1219008   -1.6994307    2.0513289 
C     0.3546998   -3.5847712   -0.3446022 
C     1.3362651   -3.4572229    0.7107135 
C    -1.8972802   -2.6411931   -0.0923461 
C    -0.9341619   -3.6079045    0.2962249 
C    -2.5577342   -0.5085031    1.0020135 
C    -2.3092298   -1.8957473    1.0841686 
C    -2.1219008    1.6994307    2.0513289 
C    -2.2919977    0.3015573    2.2027635 
C    -0.6430493    3.4757790    1.9860184 
C     0.7435028    3.5227603    1.7226192 
C     1.6212707    2.4992312    2.2342648 
C    -1.1642142    2.4520263    2.8376476 
C     1.6178603    0.3106453    3.3310219 
C     1.1730674    1.6919540    3.2657104 
C    -0.2594217    1.7357721    3.6516221 
C    -1.6178603   -0.3106453    3.3310219 
C     0.6017350   -0.4245925    3.9981776 
C    -0.6017350    0.4245925    3.9981776 
C     1.1642142   -2.4520263    2.8376476 
C     0.6430493   -3.4757790    1.9860184 
C    -0.7435028   -3.5227603    1.7226192 
C    -1.6212707   -2.4992312    2.2342648 
C     0.2594217   -1.7357721    3.6516221 
C    -1.1730674   -1.6919540    3.2657104 
