60 

C     0.5268120    4.0565018    1.0834043 
C    -0.7924313    4.0194005    0.6803103 
C    -0.8449326    3.9565518   -0.7974622 
C     1.3487742    4.0420057   -0.1432356 
C     0.4860747    3.7419609   -1.2680219 
C     2.4227005    3.2199764    0.1055453 
C     1.0259488    3.0359735    1.9821839 
C     2.3009846    2.6597237    1.4730292 
C     0.1732223    1.9809469    2.4496683 
C    -1.7022332    3.0572740    1.1968439 
C    -1.2602842    2.0487410    2.1264433 
C    -1.9163165    3.1252174   -1.1508664 
C    -2.5641077    2.6657388    0.0894857 
C    -1.7265290    2.1848377   -2.1796031 
C     0.7543944    2.5663932   -2.0892380 
C    -0.3806099    1.8784231   -2.6084140 
C     2.7843073    2.1360456   -0.7478120 
C     1.9523400    1.7431253   -1.8452680 
C     2.7995497    1.3501072    1.4758219 
C     3.3301965    1.1150893    0.1363902 
C     0.7957621    0.6502959    2.6799732 
C     2.1078823    0.2956129    2.1369235 
C    -0.0633907   -0.4154860    2.9902430 
C    -2.0686439    0.8421371    2.2216434 
C    -1.4870840   -0.2976498    2.8501329 
C    -3.2162376    1.4533931    0.1109081 
C    -3.0976694    0.5823964    1.2553247 
C    -2.4829419    0.9550669   -2.1759639 
C    -3.2970382    0.6234250   -1.0875772 
C    -0.3430891    0.4591102   -2.9466125 
C    -1.6662877   -0.0808601   -2.7760327 
C     1.9939442    0.3254915   -2.2432944 
C     0.8146061   -0.3463552   -2.7818987 
C     3.4884884   -0.1486765   -0.3008535 
C     2.9696348   -0.5181104   -1.6131853 
C     2.4276518   -1.0878985    1.7433234 
C     3.2815989   -1.2719576    0.6081666 
C     0.3146570   -1.8293454    2.7716654 
C     1.4984326   -2.1777279    2.0651273 
C    -1.9698727   -1.6095312    2.5645580 
C    -0.8838096   -2.5617820    2.5873423 
C    -3.3699607   -0.7634739    0.7965606 
C    -3.4098604   -0.7494511   -0.6516857 
C    -2.8218702   -1.8718590    1.4638623 
C    -1.8432448   -1.4146409   -2.4138864 
C    -2.7635220   -1.7731286   -1.3607243 
C     0.6178456   -1.8065663   -2.6186987 
C    -0.7091926   -2.3036346   -2.3816197 
C     2.8340252   -1.9134246   -1.5798403 
C     3.1453475   -2.4110955   -0.2281427 
C     1.6777575   -2.5990730   -2.0669228 
C     1.4097827   -3.3473736    1.2007322 
C     2.2523930   -3.4334091    0.0571651 
C     1.4009165   -3.6414585   -1.1221990 
C    -1.0424019   -3.4351637    1.4713156 
C    -2.2350309   -2.9894409    0.7240430 
C    -2.1891298   -2.9178847   -0.6698269 
C    -0.9743201   -3.3085794   -1.3734152 
C     0.0964595   -3.8483902    0.7949728 
C     0.0895518   -3.8975346   -0.6708087 
