60 

C    -0.8505342   -3.9802630    0.6968472 
C    -0.8505342   -3.9802630   -0.6968472 
C     0.5167672   -3.8472665   -1.1708398 
C     0.5167672   -3.8472665    1.1708398 
C     1.3767149   -3.7035744    0.0000000 
C     0.5394253   -2.9069055    2.2119632 
C    -1.6719273   -3.0526700    1.4401111 
C    -0.8418162   -2.4309033    2.4505920 
C    -2.5543446   -2.2332257    0.7408200 
C    -1.6719273   -3.0526700   -1.4401111 
C    -2.5543446   -2.2332257   -0.7408200 
C     0.5394253   -2.9069055   -2.2119632 
C    -0.8418162   -2.4309033   -2.4505920 
C     1.6244290   -1.9625581   -2.2995267 
C     2.3133811   -2.6796214    0.0000000 
C     2.5144706   -1.8469296   -1.1797300 
C     1.6244290   -1.9625581    2.2995267 
C     2.5144706   -1.8469296    1.1797300 
C     1.4029487   -0.8061382    3.0543252 
C    -1.0910833   -1.1251594    2.9157914 
C     0.0389330   -0.4450966    3.4980441 
C    -2.8083752   -0.8865207    1.1816415 
C    -2.1368879   -0.2992994    2.2845247 
C    -2.8083752   -0.8865207   -1.1816415 
C    -3.1184272   -0.1037142    0.0000000 
C    -1.0910833   -1.1251594   -2.9157914 
C    -2.1368879   -0.2992994   -2.2845247 
C     1.4029487   -0.8061382   -3.0543252 
C     0.0389330   -0.4450966   -3.4980441 
C     2.0853086    0.4301083   -2.7740880 
C     2.9172520   -0.5534337   -0.7326869 
C     2.9172520   -0.5534337    0.7326869 
C     2.6760159    0.6318783   -1.4787974 
C     2.0853086    0.4301083    2.7740880 
C     2.6760159    0.6318783    1.4787974 
C     0.0012458    0.9222580    3.7349074 
C     1.3111077    1.4703152    3.3854097 
C    -2.0437559    1.1749252    2.3361455 
C    -1.0205036    1.7744510    3.1441998 
C    -2.9522374    1.2595274    0.0000000 
C    -2.4704192    1.9263553    1.1886711 
C    -2.0437559    1.1749252   -2.3361455 
C    -2.4704192    1.9263553   -1.1886711 
C     0.0012458    0.9222580   -3.7349074 
C     1.3111077    1.4703152   -3.3854097 
C    -1.0205036    1.7744510   -3.1441998 
C     1.0974203    2.6448388   -2.7032390 
C    -0.3491737    2.9437874   -2.6736349 
C     2.4223706    1.8893778   -0.7359624 
C     2.4223706    1.8893778    0.7359624 
C     1.6509581    2.8950555   -1.4005538 
C     1.0974203    2.6448388    2.7032390 
C    -0.3491737    2.9437874    2.6736349 
C     1.6509581    2.8950555    1.4005538 
C    -1.7755549    3.1056967    0.7234683 
C    -1.7755549    3.1056967   -0.7234683 
C    -0.6305517    3.5319932   -1.4307287 
C     0.6365594    3.6490202   -0.6851346 
C    -0.6305517    3.5319932    1.4307287 
C     0.6365594    3.6490202    0.6851346 
