60 

C    -0.2595299   -4.3610889    0.8245614 
C     0.3650646   -4.1477520   -0.4543221 
C     1.6155217   -3.4575126   -0.2787485 
C     0.4690581   -3.5394639    1.7396348 
C     1.6689986   -3.0685546    1.1153039 
C    -0.3801116   -2.5452967    2.3457919 
C    -1.5642609   -3.7783016    0.7466788 
C    -1.7091015   -2.8128235    1.8113290 
C    -0.6027128   -3.5366581   -1.3344288 
C    -1.8499139   -3.3321737   -0.5872880 
C    -0.1803855   -2.5459399   -2.2402109 
C     2.1005933   -2.5332181   -1.2646788 
C     1.2029377   -2.0957576   -2.2828485 
C     3.0662132   -1.6107379   -0.8339280 
C     2.2414524   -1.8368037    1.5137312 
C     3.2585864   -1.3769945    0.6211154 
C     0.0642331   -1.1966828    2.5508134 
C     1.4696189   -0.8588159    2.2682605 
C    -0.9422283   -0.1348175    2.5647830 
C    -2.5824285   -1.7735446    1.6240132 
C    -2.2866379   -0.4715108    2.1873658 
C    -2.6582752   -2.1738014   -0.8028524 
C    -3.2336154   -1.5540163    0.3522373 
C    -1.0233775   -1.4341696   -2.5361258 
C    -2.3042938   -1.2618738   -1.9044584 
C     1.1984585   -0.7099904   -2.6652353 
C    -0.1698381   -0.3010537   -2.8498813 
C     3.2613198   -0.3432604   -1.4704374 
C     2.1898821    0.2216696   -2.2565909 
C     3.8150769   -0.1343135    0.8103435 
C     3.9573082    0.4858243   -0.5210732 
C     1.9105469    0.5334390    2.2692225 
C     3.1981108    0.8360900    1.6827932 
C    -0.5347992    1.2670100    2.4593918 
C     0.8907353    1.6106734    2.3435860 
C    -1.5200754    2.2194888    2.0438817 
C    -3.1585763    0.4646725    1.5465084 
C    -3.6698577   -0.1817298    0.3380110 
C    -2.8302830    1.8203317    1.5507518 
C    -2.8155195    0.0416804   -1.9276262 
C    -3.6736971    0.5517152   -0.8584735 
C    -0.5802876    1.0278617   -2.6507261 
C    -1.9935913    1.1786444   -2.3827988 
C     1.8019437    1.6433201   -2.0636177 
C     0.3930853    2.0379421   -2.2079229 
C     3.6949063    1.8185312   -0.4190235 
C     3.4021909    2.0975934    1.0183112 
C     2.6532912    2.4482544   -1.2196675 
C     1.2169685    2.8863274    1.7743125 
C     2.4297120    3.0551376    1.0426615 
C     2.0485379    3.3957848   -0.3513016 
C    -1.1178546    3.3673539    1.2445788 
C    -0.1346014    3.1584803   -1.4299285 
C     0.2087872    3.5942189    1.0093127 
C     0.6897577    3.6863048   -0.3785435 
C    -3.1560584    2.5994485    0.3919197 
C    -3.5191194    1.9683994   -0.8072262 
C    -2.4734523    2.3334907   -1.7647032 
C    -2.0145377    3.4817898    0.1390207 
C    -1.5438758    3.2771799   -1.1855591 
