60 

C     1.5957063    4.1274320   -0.7053350 
C     0.2869631    4.3185249   -0.2065647 
C     0.2157333    3.8646299    1.1804440 
C     2.2919704    3.3556144    0.2800872 
C     1.4584826    3.1419780    1.4457096 
C     2.8464485    2.1999326   -0.3333210 
C     1.4722946    3.2597405   -1.8622434 
C     2.3099341    2.1220289   -1.6861854 
C    -0.6802653    3.7926312   -1.1541073 
C     0.0932101    3.0007525   -2.1347904 
C    -1.8909226    3.3221627   -0.6534253 
C    -1.0076882    3.3727483    1.6360870 
C    -2.1282461    3.3189340    0.7552641 
C    -1.0186076    2.1460676    2.4441908 
C     1.4594696    1.8820811    2.1153939 
C     0.1926129    1.4569321    2.7308550 
C     3.0472365    1.0130439    0.4084595 
C     2.3928012    0.8259531    1.6935277 
C     3.3133710   -0.1143345   -0.4156398 
C     1.9543429    0.8567525   -2.2413861 
C     2.6974978   -0.2229719   -1.7215557 
C    -0.3494385    1.7049263   -2.5517847 
C     0.6113803    0.6192990   -2.7461889 
C    -2.4240360    2.0639153   -1.1848758 
C    -1.7120141    1.3321489   -2.1816236 
C    -2.8270711    2.0816369    1.0494231 
C    -2.2129027    1.3904535    2.1198267 
C    -3.1135481    1.3520671   -0.1250578 
C    -2.2586220   -0.0378858    2.1815634 
C     0.0300894    0.1071489    3.1288574 
C    -1.2327027   -0.6006800    2.9723951 
C     2.2168264   -0.5448468    2.1717939 
C     1.0947660   -0.8563778    2.9963800 
C     3.3042449   -1.4098587    0.1361345 
C     2.7330507   -1.6595676    1.3940036 
C     2.2952047   -1.6051279   -1.9282890 
C     2.8101551   -2.3672475   -0.8462512 
C     0.1583816   -0.7651757   -2.9000194 
C     1.0215840   -1.8981617   -2.4987878 
C    -2.1177379   -0.0015067   -2.3502685 
C    -1.2559196   -1.0008212   -2.9194792 
C    -3.1982317   -0.0727108   -0.1055202 
C    -2.8405715   -0.8294619    1.0846061 
C    -3.0066417   -0.6677500   -1.3857265 
C    -2.4641695   -2.2432113    0.9348568 
C    -0.9270715   -1.9762325    2.8634030 
C     0.4890320   -2.1539316    2.9517035 
C    -1.4702577   -2.7940180    1.8332319 
C     1.9955190   -2.9394914    1.2533996 
C     2.0189890   -3.3133628   -0.1655418 
C     0.8496532   -3.1559248    2.0020540 
C    -0.3849614   -3.6422901    1.3577558 
C     0.4176765   -3.1350441   -2.0285877 
C     0.8480000   -3.7546742   -0.7928686 
C    -0.3633875   -4.0282553    0.0139742 
C    -1.8068793   -2.2742022   -2.5525136 
C    -2.8072470   -2.0360296   -1.5138405 
C    -2.5243844   -2.8619902   -0.3641741 
C    -1.0028813   -3.2990913   -2.0910031 
C    -1.4962206   -3.7673002   -0.7884252 
