60 

C     1.3596299   -4.2088364    0.7145833 
C     2.4514662   -3.3289283    0.5117451 
C     2.3537968   -2.3038490    1.5080352 
C     0.5376691   -3.7353305    1.8092851 
C     1.1237236   -2.5224464    2.2892834 
C    -0.8243551   -3.7614548    1.3717725 
C     0.5637266   -4.2660984   -0.4638981 
C    -0.8128858   -4.1150691   -0.0761139 
C     2.4037683   -2.9177431   -0.8813150 
C     1.1663558   -3.4090395   -1.4739826 
C     2.8168137   -1.6469272   -1.1816659 
C     2.7763326   -0.9890405    1.2182145 
C     3.2514953   -0.7624807   -0.1170365 
C     2.1526151    0.1431413    1.9287815 
C     0.3026748   -1.3937975    2.6218879 
C     0.8334368   -0.0292283    2.5233654 
C    -1.6628259   -2.7388775    1.7859350 
C    -1.1120136   -1.5962608    2.5031294 
C    -2.7270319   -2.2438304    0.9251895 
C    -1.6569356   -3.4538963   -0.9443672 
C    -2.7610569   -2.6419309   -0.4408272 
C     0.3478700   -2.5206560   -2.2331405 
C    -1.0754191   -2.7380803   -2.1114374 
C     2.1110576   -0.7973004   -2.1311132 
C     0.8079921   -1.1458104   -2.5669300 
C     3.2525849    0.5502183   -0.6472666 
C     2.4842089    0.5596650   -1.8886036 
C     2.5607921    1.4288620    1.5405641 
C     3.1917783    1.6168025    0.2349102 
C     1.7853765    2.6203113    1.7961747 
C    -0.0648287    1.1196720    2.5446623 
C     0.4338464    2.4799231    2.2473285 
C    -1.9545249   -0.4823538    2.2572250 
C    -2.9594382   -0.8764737    1.2577800 
C    -1.4940776    0.8450501    2.3788885 
C    -3.3377010    0.0763253    0.2662179 
C    -3.0313287   -1.6539169   -1.4245451 
C    -1.9351329   -1.6914551   -2.4060322 
C    -3.2647336   -0.3157937   -1.1161714 
C    -0.1305433   -0.0287907   -2.7497742 
C    -1.5157720   -0.3529501   -2.6868815 
C    -2.4353552    0.5187739   -2.0185286 
C     1.6328680    1.6636842   -2.1576423 
C     0.2411669    1.3719060   -2.4952956 
C     2.7862725    2.8619282   -0.2741139 
C     2.1321568    3.5987904    0.7648369 
C     1.9785553    2.9038137   -1.4968905 
C     1.1177799    4.3469987    0.1447564 
C     0.9893250    3.8698816   -1.2786577 
C    -0.5101619    3.5013290    1.7883715 
C    -0.1415598    4.3945411    0.6912221 
C    -2.3188431    1.8310074    1.7355385 
C    -3.0676607    1.4234926    0.5381605 
C    -1.8481007    3.1228750    1.5311076 
C    -2.1070104    1.8400568   -1.7050422 
C    -0.7892581    2.3525085   -2.1165350 
C    -0.3791383    3.6172315   -1.5537165 
C    -1.1070127    4.1556780   -0.4090743 
C    -2.7406942    2.3614581   -0.5073546 
C    -2.1817360    3.4927210    0.1250004 
