60 

C     1.6941930   -3.6743118   -1.0600513 
C     0.4485182   -3.6709108   -1.6413082 
C    -0.5632364   -4.0331452   -0.6295628 
C     1.4770293   -3.9573773    0.3932433 
C     0.0622878   -3.9686080    0.6573125 
C     2.2864629   -3.0948651    1.0820448 
C     2.5415890   -2.5216048   -1.1835056 
C     3.0858259   -2.2909852    0.1257504 
C     2.1124552   -1.3770432   -1.9242157 
C    -0.0464106   -2.5365074   -2.3703706 
C     0.7684795   -1.3944163   -2.5493648 
C    -1.7257901   -3.3191191   -0.9125377 
C    -1.4592070   -2.3843289   -2.0102290 
C    -2.4976068   -2.8736078    0.1848417 
C    -0.4917250   -3.0604321    1.6654912 
C    -1.8327410   -2.6608246    1.4713992 
C     1.7968131   -2.1968856    2.0979676 
C     0.4034999   -2.1101624    2.3824479 
C     3.2680657   -1.0204141    0.6533502 
C     2.5929681   -0.9961430    1.9596748 
C     2.6647219   -0.0891265   -1.5246108 
C     3.2022897    0.1277451   -0.1925660 
C     2.1888886    1.0561071   -2.2273320 
C     0.0778601   -0.1306702   -2.8234802 
C     0.8624659    1.0331386   -2.8698301 
C    -2.1149526   -1.1387613   -2.0723136 
C    -1.3647465    0.0087611   -2.5863140 
C    -3.3629277   -1.7988696   -0.0330077 
C    -3.1978158   -0.9188430   -1.1350793 
C    -2.3758664   -1.4200182    2.0361663 
C    -3.4071473   -0.9739210    1.1771224 
C    -0.1169160   -0.8060245    2.8465043 
C    -1.5244978   -0.4561532    2.6669118 
C     2.1256053    0.1964561    2.4308386 
C     0.7970359    0.2805014    2.9718405 
C     3.0362835    1.4350494    0.4496349 
C     2.4730451    1.4479582    1.7720514 
C     2.4448666    2.3528674   -1.7668910 
C     2.7695617    2.5718176   -0.3730176 
C     0.3067556    2.3567590   -2.7281540 
C     1.3007917    3.1937813   -2.1102713 
C    -1.8670951    1.3087159   -2.3068184 
C    -1.0321900    2.4783431   -2.3272041 
C    -3.4753924    0.4281622   -0.6542123 
C    -3.5571699    0.3784868    0.8086146 
C    -2.8598129    1.5015351   -1.2549925 
C    -1.8972268    0.9284187    2.5249617 
C    -2.8868911    1.3475386    1.5602939 
C     0.4096579    1.6686481    2.8346912 
C     1.4713704    2.3982913    2.1429896 
C    -0.9164267    1.9932192    2.6012183 
C     1.9097249    3.6151059    0.0895318 
C     0.9734970    3.9608176   -0.9940263 
C     1.1528579    3.4660176    1.2746663 
C    -1.3818022    3.3289108   -1.1833454 
C    -2.4571478    2.6744608   -0.4798999 
C    -2.4236618    2.5675693    0.9195041 
C    -1.2517300    3.0335168    1.6343735 
C    -0.3607008    3.9851168   -0.4649658 
C    -0.2566323    3.7502631    0.9740390 
