60 

C     4.9239699   -0.2692882    0.0000000 
C     4.2527985   -0.8286961    1.1536637 
C     3.7665244    0.2034066    1.9947525 
C     4.6156397    1.1343786    0.0000000 
C     3.9361147    1.4549104    1.2272211 
C     3.9361147    1.4549104   -1.2272211 
C     4.2527985   -0.8286961   -1.1536637 
C     3.7665244    0.2034066   -1.9947525 
C     3.2951951   -1.8217717    0.7288458 
C     3.2951951   -1.8217717   -0.7288458 
C     2.0617580   -1.9996875    1.4121710 
C     2.4431692    0.1650616    2.4939765 
C     1.6023891   -0.9766433    2.3402757 
C     2.7020026    2.1333089    1.2353136 
C     1.8146186    1.4230495    2.1602934 
C     2.7020026    2.1333089   -1.2353136 
C     2.0860490    2.5857444    0.0000000 
C     2.4431692    0.1650616   -2.4939765 
C     1.8146186    1.4230495   -2.1602934 
C     2.0617580   -1.9996875   -1.4121710 
C     1.6023891   -0.9766433   -2.3402757 
C     1.0738151   -2.7989963    0.7336563 
C     1.0738151   -2.7989963   -0.7336563 
C    -0.1553667   -2.9859286    1.4005356 
C     0.1656599   -0.8049767    2.5410277 
C    -0.6456623   -1.9169166    2.2600276 
C     0.4267418    1.5969610    2.1299964 
C    -0.4575055    0.5170640    2.5203646 
C     0.6954616    2.8247123    0.0000000 
C    -0.0750453    2.6125397    1.2248014 
C     0.4267418    1.5969610   -2.1299964 
C    -0.0750453    2.6125397   -1.2248014 
C     0.1656599   -0.8049767   -2.5410277 
C    -0.4575055    0.5170640   -2.5203646 
C    -0.1553667   -2.9859286   -1.4005356 
C    -0.6456623   -1.9169166   -2.2600276 
C    -1.2835225   -3.4940969    0.7001823 
C    -1.2835225   -3.4940969   -0.7001823 
C    -2.0858137   -1.7841927    2.0580944 
C    -2.4861951   -2.7967184    1.1527089 
C    -1.8974052    0.6789949    2.3525476 
C    -2.7226986   -0.4990373    2.0719945 
C    -1.4422810    2.8428388    1.2257617 
C    -2.3686468    1.9600744    1.8938651 
C    -1.4422810    2.8428388   -1.2257617 
C    -2.0893984    3.3037586    0.0000000 
C    -1.8974052    0.6789949   -2.3525476 
C    -2.3686468    1.9600744   -1.8938651 
C    -2.0858137   -1.7841927   -2.0580944 
C    -2.4861951   -2.7967184   -1.1527089 
C    -3.2747681   -2.4537019    0.0000000 
C    -2.7226986   -0.4990373   -2.0719945 
C    -3.8425307   -0.3479091    1.1751949 
C    -3.9033652   -1.2197917    0.0000000 
C    -3.8425307   -0.3479091   -1.1751949 
C    -3.6311524    2.0998267    1.1785253 
C    -3.4302593    2.9573826    0.0000000 
C    -3.6311524    2.0998267   -1.1785253 
C    -4.2586258    0.9359376    0.7498623 
C    -4.2586258    0.9359376   -0.7498623 
