60 

C    -2.3730245   -3.1281383    0.8670151 
C    -1.4760989   -3.1560618    1.9320853 
C    -0.2507379   -3.8491658    1.5043953 
C    -1.6628380   -3.7073657   -0.3105282 
C    -0.3704029   -4.1527943    0.1016993 
C    -1.8283274   -2.8146007   -1.3752843 
C    -3.0238243   -1.9400089    0.4906375 
C    -2.8536444   -1.8489062   -0.9608021 
C    -2.8685913   -0.7366338    1.2515539 
C    -1.1208256   -1.9301894    2.5644428 
C    -1.8488828   -0.7344029    2.3015561 
C     0.8472592   -3.0940286    1.9748383 
C     0.3374795   -1.8934360    2.6299102 
C     2.0075057   -2.9809179    1.1723107 
C     0.7160533   -3.8593543   -0.7575708 
C     1.9554765   -3.4981942   -0.1682310 
C    -0.6930871   -2.3424576   -2.1693501 
C     0.5418284   -2.9552004   -1.8981626 
C    -0.7253761   -0.9682568   -2.7251404 
C    -2.9570032   -0.6623328   -1.6053633 
C    -1.9566560   -0.2691213   -2.6111999 
C    -3.1935769    0.5181252    0.5761665 
C    -3.3496724    0.5277309   -0.8631805 
C    -2.7650616    1.7237593    1.1684431 
C    -1.1974205    0.5088578    2.6698866 
C    -1.8661888    1.7136059    2.3013330 
C     1.0364230   -0.6711342    2.5872967 
C     0.2598994    0.5391511    2.8433316 
C     2.7554983   -1.7496249    1.1560224 
C     2.3167854   -0.5968241    1.8608332 
C     2.6623840   -2.5825871   -1.0304416 
C     1.7725332   -2.1717676   -2.0530322 
C     3.2765432   -1.5860604   -0.2098082 
C     0.4969299   -0.1699012   -2.8618026 
C     1.7608307   -0.8059975   -2.5025075 
C     0.4099909    1.3033320   -2.8137336 
C    -2.0106768    1.1375286   -2.6468042 
C    -2.9263894    1.6394775   -1.6239277 
C    -0.8551083    1.9365251   -2.6522754 
C    -2.4374153    2.9301646    0.3603865 
C    -2.3570571    2.7924777   -1.0531149 
C    -1.0737227    3.0321773   -1.6964675 
C    -1.1604965    2.9518726    2.2826555 
C    -1.4668919    3.6744303    1.0352413 
C     0.9407383    1.7803163    2.6898605 
C     0.2029571    2.9918203    2.4880735 
C     2.7937301    0.7144752    1.3993577 
C     2.1282723    1.8685471    1.8689219 
C     3.4814101   -0.3425910   -0.7472894 
C     2.8279351    0.0129148   -2.0051215 
C     3.4370234    0.8256844    0.1106569 
C     1.5147644    2.0736697   -2.3185562 
C     2.7125483    1.4218748   -1.9911942 
C     3.1973562    1.9507594   -0.7226502 
C     0.0150167    3.6099421   -0.9749823 
C    -0.2147025    4.0144960    0.4150758 
C     0.8117308    3.7500200    1.3870482 
C     1.9934417    3.0907054    1.0314515 
C     1.3128903    3.1552956   -1.3395580 
C     2.3604658    3.0083188   -0.3344066 
