60 

C    -1.6874240   -4.3270057   -0.2329393 
C    -0.5207305   -4.4092201   -1.0931897 
C     0.5901551   -4.5953180   -0.2434879 
C    -1.2080746   -4.0849419    1.1505889 
C     0.1542170   -4.3056492    1.1873668 
C    -1.7316851   -2.8185854    1.6196962 
C    -2.4262342   -3.2105769   -0.5944007 
C    -2.6145775   -2.3658329    0.5743028 
C    -0.5229679   -3.2487496   -1.9730526 
C    -1.7725774   -2.5535341   -1.7251343 
C     0.6471779   -2.4261545   -2.1559149 
C     1.7502941   -3.8791357   -0.4598945 
C     1.8419730   -2.8424089   -1.4449404 
C     1.0439554   -3.3161120    1.7278087 
C     2.1488141   -3.2554294    0.8234434 
C    -0.8930912   -1.8230683    2.2335495 
C     0.5474331   -2.0550689    2.2775105 
C    -1.3978081   -0.4545497    2.2694799 
C    -2.8905546   -1.0242121    0.3929354 
C    -2.5900450   -0.1314947    1.4946424 
C    -1.9108807   -1.1761117   -1.8871737 
C    -2.8027713   -0.4794702   -0.9579381 
C     0.4875227   -0.9952900   -2.4575969 
C    -0.8258097   -0.3926232   -2.4622895 
C     1.6374558   -0.0895569   -2.2892167 
C     2.6693187   -1.8124143   -0.8683979 
C     2.7975206   -2.0673625    0.5659282 
C     2.6937530   -0.5006472   -1.3559070 
C     1.4314621   -0.8984409    2.2703069 
C     2.6332419   -0.9638684    1.4481966 
C    -0.5186117    0.6395563    2.6365707 
C     0.9145972    0.4326487    2.5970453 
C    -1.0196043    1.9947062    2.4945328 
C    -3.0181985    1.1980841    1.3354790 
C    -2.2896498    2.2439001    1.9556640 
C    -2.9922062    0.8923923   -1.1065821 
C    -3.3685177    1.6734123    0.0148314 
C    -0.9883429    1.0569141   -2.5601098 
C    -2.1317008    1.6899227   -1.9827586 
C     1.4890712    1.2882112   -2.4998192 
C     0.1755763    1.8694879   -2.7301822 
C     2.2990200    2.2812604   -1.7831524 
C     3.2919996    0.4594702   -0.4895181 
C     3.2217804    0.2155725    0.9604630 
C     3.1325415    1.8630521   -0.7201013 
C     1.7540820    1.5800648    2.3463395 
C     2.9198729    1.4388779    1.5629499 
C     2.9688719    2.5023477    0.5564942 
C    -0.1477026    3.0966105    2.0648974 
C     1.1980713    2.8883223    1.9748176 
C     1.9406013    3.4234910    0.8120698 
C    -2.1975419    3.3813286    1.0161252 
C    -2.8244840    2.9991431   -0.1763785 
C    -2.0667903    3.0183210   -1.4129713 
C    -0.8632212    3.8799817    1.0340555 
C     0.2001040    3.1988815   -2.2352614 
C     1.4883209    3.4298754   -1.5910047 
C     1.2197384    3.9605128   -0.2926930 
C    -0.8462198    3.7265052   -1.4357133 
C    -0.2205198    4.1799788   -0.1803715 
