60 

C    -1.2722413   -3.6930801    0.6932854 
C    -1.2722413   -3.6930801   -0.6932854 
C     0.1316916   -3.7956620   -1.1605501 
C     0.1316916   -3.7956620    1.1605501 
C     0.9763378   -3.7949836    0.0000000 
C     0.3139399   -2.8909830    2.2110372 
C    -1.9248609   -2.6630232    1.4109748 
C    -1.0090658   -2.3224942    2.5087248 
C    -2.6342721   -1.6189398    0.7344969 
C    -1.9248609   -2.6630232   -1.4109748 
C    -2.6342721   -1.6189398   -0.7344969 
C     0.3139399   -2.8909830   -2.2110372 
C    -1.0090658   -2.3224942   -2.5087248 
C     1.4756668   -2.0244353   -2.2747545 
C     2.0691382   -2.9157206    0.0000000 
C     2.3819331   -2.1229767   -1.1777672 
C     1.4756668   -2.0244353    2.2747545 
C     2.3819331   -2.1229767    1.1777672 
C     1.3585852   -0.7438157    2.9856793 
C    -1.1160064   -1.1364018    3.1562070 
C     0.0801137   -0.3950035    3.5628548 
C    -2.7956924   -0.3483766    1.4636621 
C    -2.1556049   -0.1877953    2.7485613 
C    -3.0359932    0.8434134    0.7316125 
C    -2.7956924   -0.3483766   -1.4636621 
C    -3.0359932    0.8434134   -0.7316125 
C    -1.1160064   -1.1364018   -3.1562070 
C    -2.1556049   -0.1877953   -2.7485613 
C     1.3585852   -0.7438157   -2.9856793 
C     0.0801137   -0.3950035   -3.5628548 
C     2.1809411    0.3516073   -2.5809087 
C     3.1210480   -0.9650211   -0.7292880 
C     3.1210480   -0.9650211    0.7292880 
C     3.0494912    0.2317264   -1.4235782 
C     2.1809411    0.3516073    2.5809087 
C     3.0494912    0.2317264    1.4235782 
C     1.7077578    1.7241606    2.6137758 
C    -0.3219837    0.9460685    3.6604635 
C    -1.7099359    1.0747227    3.1789270 
C     0.4320917    2.0198953    3.1204275 
C    -2.5345610    2.1230681    1.1732068 
C    -1.7964240    2.2256440    2.3648609 
C    -0.4800416    2.8703912    2.3483063 
C    -2.5345610    2.1230681   -1.1732068 
C    -2.1183515    2.8635256    0.0000000 
C    -1.7099359    1.0747227   -3.1789270 
C    -0.3219837    0.9460685   -3.6604635 
C    -1.7964240    2.2256440   -2.3648609 
C     1.7077578    1.7241606   -2.6137758 
C     0.4320917    2.0198953   -3.1204275 
C    -0.4800416    2.8703912   -2.3483063 
C     3.0383584    1.4928516   -0.6978029 
C     3.0383584    1.4928516    0.6978029 
C     2.1874421    2.4077510    1.4259514 
C     2.1874421    2.4077510   -1.4259514 
C    -0.0322372    3.4743015    1.1786276 
C    -0.8878926    3.5331574    0.0000000 
C    -0.0322372    3.4743015   -1.1786276 
C     1.3402441    3.2794172    0.7240960 
C     1.3402441    3.2794172   -0.7240960 
