60 

C     1.6150250   -3.6053245   -0.9088486 
C     1.1374135   -3.9038267    0.3576726 
C     1.8823888   -3.0802139    1.3345971 
C     2.6881421   -2.6134812   -0.7613985 
C     2.8038931   -2.2445464    0.6259738 
C     2.5121155   -1.6252251   -1.7308990 
C     0.7217803   -3.1354910   -1.9350576 
C     1.2977200   -1.9413402   -2.5040103 
C    -0.6625523   -3.1512225   -1.6981675 
C    -0.2595418   -3.8294159    0.6618179 
C    -1.1682419   -3.5521917   -0.3837322 
C     0.9557077   -2.5278695    2.2300207 
C    -0.3736883   -3.0683438    1.9005090 
C     1.1222752   -1.1863551    2.7074432 
C     2.9628590   -0.8836397    1.0031558 
C     2.2798123   -0.4331299    2.2255700 
C     2.8815398   -0.2720730   -1.4329932 
C     3.2177907    0.0897972   -0.0610399 
C     2.3394517    0.7015382   -2.3088896 
C     0.5012845   -0.8942257   -3.0096465 
C     1.1585370    0.3825138   -3.0965914 
C    -1.4993697   -2.0798439   -2.1995906 
C    -0.9604897   -0.9368097   -2.8620446 
C    -2.3495313   -2.7637767   -0.1184788 
C    -2.6269344   -1.9440826   -1.2923781 
C    -1.4902305   -2.2910555    2.1355630 
C    -2.5532442   -2.2035356    1.1496577 
C    -0.0818214   -0.4654207    3.1175606 
C    -1.3624191   -0.9994494    2.7789017 
C    -0.0166673    0.9576240    3.2529925 
C     2.3349789    0.9579014    2.5318800 
C     1.2147745    1.6107422    3.1306923 
C     3.1713536    1.4830491    0.2769633 
C     2.8882848    1.8847983    1.5877733 
C     2.2325939    2.0985820   -1.9159176 
C     2.5885839    2.4764832   -0.6332031 
C     0.3890335    1.5609995   -3.2133198 
C     1.0351163    2.6302967   -2.4659442 
C    -1.7151038    0.3277997   -2.7950537 
C    -1.0047132    1.5660483   -2.9501540 
C    -3.2975590   -0.7416211   -1.1701507 
C    -2.8989612    0.3912473   -1.9926428 
C    -3.1576303   -0.8965759    1.2851373 
C    -2.4158345   -0.1475826    2.2840463 
C    -3.6535711   -0.2323906    0.1547881 
C    -1.0464179    1.8252423    2.6840000 
C    -2.2263710    1.2772455    2.1508912 
C     0.9845623    2.8914232    2.4416456 
C     2.0001838    3.0626648    1.5125686 
C     1.7072198    3.3437484    0.1432403 
C    -0.3837545    2.9616861    2.0609685 
C     0.0598721    3.2528201   -1.6524279 
C    -1.2328396    2.7053332   -2.0577965 
C     0.3456652    3.5622469   -0.2727037 
C    -0.7393772    3.3607793    0.7207438 
C    -3.1955852    1.5744104   -1.2482087 
C    -3.5697466    1.1875235    0.0886014 
C    -2.7990771    1.9490658    1.0150623 
C    -2.2730628    2.6552491   -1.1462814 
C    -2.0156219    2.9212011    0.2671325 
