60 

C     0.5023349   -4.7555839    0.4931196 
C    -0.4466109   -4.1833677    1.4701270 
C    -1.6564590   -3.9197724    0.8168584 
C    -0.0569190   -4.4937366   -0.8054918 
C    -1.4004240   -4.0798533   -0.6374473 
C     0.8247450   -3.5857417   -1.5331439 
C     1.6564544   -3.9576593    0.5912054 
C     1.9648903   -3.3231376   -0.6819383 
C     0.1872539   -3.1258065    2.2310946 
C     1.5607902   -3.0818801    1.7469632 
C    -0.4921393   -1.8970018    2.5165451 
C    -2.3246059   -2.6958528    1.0135666 
C    -1.8413543   -1.7418395    1.9734495 
C    -1.9361778   -2.9528900   -1.2942660 
C    -2.6763061   -2.1813418   -0.3083982 
C     0.2904360   -2.5276605   -2.3430220 
C    -1.1593434   -2.2218134   -2.2710693 
C     1.1623461   -1.4306509   -2.5891620 
C     2.6404940   -2.0676851   -0.6992405 
C     2.3413618   -1.2005095   -1.7950518 
C     2.2443989   -1.8863400    1.7333904 
C     2.9536521   -1.4356106    0.5577828 
C     0.3086960   -0.6643464    2.7235095 
C     1.6851611   -0.7176334    2.3850890 
C    -0.3086960    0.6643464    2.7235095 
C    -2.3456203   -0.4289264    1.8429352 
C    -1.6851611    0.7176334    2.3850890 
C    -2.9899594   -0.8240001   -0.5081339 
C    -3.0388798    0.0160634    0.6528624 
C    -1.5835852   -0.9036492   -2.5450759 
C    -2.5639840   -0.2215181   -1.7269679 
C     0.6795062   -0.1259826   -3.0100901 
C    -0.6795062    0.1259826   -3.0100901 
C     2.5639840    0.2215181   -1.7269679 
C     1.5835852    0.9036492   -2.5450759 
C     3.0388798   -0.0160634    0.6528624 
C     2.3456203    0.4289264    1.8429352 
C     2.9899594    0.8240001   -0.5081339 
C     0.4921393    1.8970018    2.5165451 
C     1.8413543    1.7418395    1.9734495 
C    -0.1872539    3.1258065    2.2310946 
C    -2.2443989    1.8863400    1.7333904 
C    -2.9536521    1.4356106    0.5577828 
C    -1.5607902    3.0818801    1.7469632 
C    -2.3413618    1.2005095   -1.7950518 
C    -1.1623461    1.4306509   -2.5891620 
C    -2.6404940    2.0676851   -0.6992405 
C     1.1593434    2.2218134   -2.2710693 
C    -0.2904360    2.5276605   -2.3430220 
C     2.6763061    2.1813418   -0.3083982 
C     2.3246059    2.6958528    1.0135666 
C     1.9361778    2.9528900   -1.2942660 
C     0.4466109    4.1833677    1.4701270 
C     1.6564590    3.9197724    0.8168584 
C     1.4004240    4.0798533   -0.6374473 
C    -1.6564544    3.9576593    0.5912054 
C    -1.9648903    3.3231376   -0.6819383 
C    -0.8247450    3.5857417   -1.5331439 
C    -0.5023349    4.7555839    0.4931196 
C     0.0569190    4.4937366   -0.8054918 
