60 

C     0.1143742   -4.6626621    0.1676557 
C     1.4605766   -4.1466077    0.1652399 
C     1.7159080   -3.5051789    1.3919421 
C    -0.5453546   -4.1145346    1.3497117 
C     0.4216590   -3.4620674    2.1459367 
C    -1.6842161   -3.3416247    0.9620002 
C    -0.5267126   -4.0494661   -0.9342073 
C    -1.6956600   -3.3339940   -0.5010214 
C     1.6782344   -3.3469556   -1.0307293 
C     0.4078105   -3.2830399   -1.7267369 
C     2.5084244   -2.1955417   -0.9972230 
C     2.3025677   -2.2241816    1.4492550 
C     2.8612559   -1.5837477    0.2886096 
C     0.2449937   -2.1402856    2.6090656 
C     1.4808211   -1.4153034    2.3304617 
C    -1.9987234   -2.1106226    1.6334091 
C    -0.9951990   -1.4328605    2.4561266 
C    -2.9293157   -1.2975397    0.9721459 
C    -2.1886118   -2.2159717   -1.2153643 
C    -3.1345024   -1.4442346   -0.4785917 
C    -0.0124028   -2.0831554   -2.3948105 
C    -1.3595041   -1.5286683   -2.2011901 
C     2.3148926   -1.3051318   -2.0946715 
C     1.0141194   -1.1940774   -2.7394090 
C     2.8597470   -0.0192671   -2.0437007 
C     3.0939811   -0.1609419    0.3814526 
C     3.2784591    0.5797408   -0.8408841 
C     1.5347186   -0.0330666    2.3418298 
C     2.5655028    0.5967168    1.5173388 
C    -0.9839334    0.0147715    2.5406757 
C     0.3095441    0.6903857    2.7025618 
C    -3.1206660    0.0786305    1.3040433 
C    -2.1104892    0.7959767    2.0352233 
C    -3.5891959   -0.2356266   -0.9767617 
C    -3.7446682    0.6875282    0.1585069 
C    -1.6142607   -0.1178423   -2.4814050 
C    -2.8271043    0.4598358   -1.9744149 
C     0.7672116    0.2186168   -3.0145770 
C     1.9526237    0.9239192   -2.7133729 
C    -0.4962741    0.8075635   -2.7612639 
C     2.9262790    1.9927828   -0.9339653 
C     1.9711085    2.1492425   -2.0443126 
C     2.5694298    2.0080648    1.4796828 
C     2.7459323    2.7299659    0.2067551 
C     0.3687945    2.0883543    2.6588122 
C     1.5924464    2.7392918    2.2163227 
C    -1.9380933    2.2272295    1.7292717 
C    -0.7413182    2.8724109    2.1574496 
C    -3.3856807    1.9491654   -0.2561374 
C    -2.8544624    1.8535353   -1.6287317 
C    -2.5313892    2.7645738    0.5286339 
C    -0.4971524    2.2010609   -2.2739457 
C     0.7400917    2.8669400   -1.8582976 
C    -1.7187550    2.6652621   -1.6715793 
C    -1.6637392    3.4465039   -0.4231061 
C     1.7959659    3.8211507    0.1878845 
C     1.2355557    3.9308092    1.5092998 
C    -0.1809573    3.9707329    1.4061746 
C     0.7327254    3.8197707   -0.7693825 
C    -0.4974130    4.0336644   -0.0036856 
