60 

C    -1.5044449   -4.5986891   -0.7199522 
C    -0.3222100   -4.6834503   -1.4355426 
C     0.8211319   -4.6648302   -0.5182640 
C    -1.1441419   -4.4219279    0.7076194 
C     0.2990660   -4.5410589    0.8363813 
C    -1.7528649   -3.2337463    1.1449195 
C    -2.2206820   -3.4277098   -1.1709403 
C    -2.4714183   -2.6513643   -0.0276219 
C    -0.2240547   -3.5512418   -2.3480852 
C    -1.4280296   -2.7634710   -2.2168208 
C     1.7135924   -3.6742645   -0.9989155 
C     1.0218214   -2.9216706   -2.0947609 
C     2.4853624   -2.9408916   -0.0768317 
C     0.9605236   -3.6707118    1.7301074 
C     2.2029092   -3.0927378    1.3204613 
C    -1.0937071   -2.3060059    2.0485161 
C     0.2397140   -2.5963044    2.4182584 
C    -1.5566649   -0.9264904    2.0973949 
C    -2.5933307   -1.2567853   -0.1239805 
C    -2.5187566   -0.4876032    1.0987162 
C    -1.3349924   -1.3591108   -2.2179192 
C    -2.2110982   -0.5927677   -1.3400057 
C     1.1431170   -1.5085900   -2.1675724 
C    -0.0410858   -0.7177242   -2.4315798 
C     2.7852821   -1.5476020   -0.3160465 
C     2.1840702   -0.8389143   -1.3844501 
C     2.3524726   -1.7970768    1.9309594 
C     1.1576344   -1.4650826    2.6165724 
C     2.8364809   -0.8659102    0.9801328 
C    -0.7210750    0.1218830    2.6592502 
C     0.7210750   -0.1218830    2.6592502 
C    -1.1576344    1.4650826    2.6165724 
C    -2.8364809    0.8659102    0.9801328 
C    -2.3524726    1.7970768    1.9309594 
C    -2.1840702    0.8389143   -1.3844501 
C    -2.7852821    1.5476020   -0.3160465 
C     0.0410858    0.7177242   -2.4315798 
C    -1.1431170    1.5085900   -2.1675724 
C     2.2110982    0.5927677   -1.3400057 
C     1.3349924    1.3591108   -2.2179192 
C     2.5187566    0.4876032    1.0987162 
C     1.5566649    0.9264904    2.0973949 
C     2.5933307    1.2567853   -0.1239805 
C    -0.2397140    2.5963044    2.4182584 
C     1.0937071    2.3060059    2.0485161 
C    -2.2029092    3.0927378    1.3204613 
C    -2.4853624    2.9408916   -0.0768317 
C    -0.9605236    3.6707118    1.7301074 
C    -1.0218214    2.9216706   -2.0947609 
C    -1.7135924    3.6742645   -0.9989155 
C     1.4280296    2.7634710   -2.2168208 
C     0.2240547    3.5512418   -2.3480852 
C     2.4714183    2.6513643   -0.0276219 
C     1.7528649    3.2337463    1.1449195 
C     2.2206820    3.4277098   -1.1709403 
C    -0.2990660    4.5410589    0.8363813 
C    -0.8211319    4.6648302   -0.5182640 
C     0.3222100    4.6834503   -1.4355426 
C     1.1441419    4.4219279    0.7076194 
C     1.5044449    4.5986891   -0.7199522 
