60 

C     1.5720572   -4.4187202   -0.6882328 
C     0.9031934   -4.6765343    0.5284608 
C    -0.4899534   -4.4720439    0.3536856 
C     0.5595218   -3.9484522   -1.6432560 
C    -0.7350010   -3.9940177   -1.0158637 
C     0.9780253   -2.7057145   -2.1778915 
C     2.4491425   -3.3184143   -0.4637555 
C     2.2221805   -2.3259596   -1.4770354 
C     1.3573360   -3.7057305    1.5449877 
C     2.3658618   -2.8919638    0.9403562 
C    -0.9454962   -3.6580905    1.4501958 
C     0.2343775   -3.0777996    2.1431737 
C    -2.0262818   -2.8539900    1.2464289 
C    -1.6677672   -2.9418320   -1.2363858 
C    -2.5320107   -2.6334111   -0.1164270 
C     0.0677019   -1.6648451   -2.4871189 
C    -1.3285594   -1.8040826   -2.1000393 
C     0.6471773   -0.3378618   -2.6925295 
C     2.5094242   -0.9893400   -1.2196465 
C     1.8929022    0.0389603   -2.0525026 
C     2.4000885   -1.5220739    1.2233596 
C     2.8616203   -0.6415154    0.1532799 
C     0.2405725   -1.6796287    2.4521783 
C     1.4445190   -0.9266002    2.1565696 
C    -2.1760183   -1.5892106    1.9732172 
C    -1.0236308   -0.9288962    2.5040396 
C    -3.2617993   -1.4484341   -0.0657629 
C    -3.1515746   -0.8504660    1.2717564 
C    -2.1464444   -0.5825110   -2.0606750 
C    -3.1340873   -0.4125745   -1.0149461 
C    -0.2463924    0.7043531   -3.0249136 
C    -1.6324840    0.6072807   -2.6028867 
C     0.1437904    2.0552136   -2.9105716 
C     2.1940625    1.4299618   -1.7695349 
C     1.3145606    2.4601867   -2.2515319 
C     3.0032653    0.6857605    0.4655282 
C     2.8946364    1.7316550   -0.5462223 
C     1.4692960    0.4981985    2.3645890 
C     2.5330439    1.2157045    1.7319246 
C    -1.0260723    0.5266357    2.5332726 
C     0.2375375    1.2401003    2.7039858 
C    -3.0811882    0.5275231    1.1317662 
C    -3.2149553    0.8421251   -0.2972190 
C    -2.1375685    1.2536781    1.9127244 
C    -2.0206504    1.9328480   -2.1013779 
C    -0.9793944    2.8357165   -2.3907219 
C    -2.6818761    2.0355062   -0.8214001 
C     0.9740280    3.6587024   -1.4412336 
C    -0.4927095    3.7971002   -1.4682208 
C     2.6772204    2.9405518    0.1335274 
C     2.4620255    2.6178861    1.5590449 
C     1.6799275    3.9021748   -0.2600931 
C     0.2395336    2.6666197    2.5850287 
C     1.3917430    3.3547468    2.0342162 
C     0.9427065    4.2529599    0.9539621 
C    -1.9645427    2.6068800    1.5125223 
C    -2.2214116    3.0223689    0.1039134 
C    -1.2043889    3.9710941   -0.2434746 
C    -0.9002511    3.3429287    2.0170556 
C    -0.4405691    4.2452928    0.9567196 
