60 

C    -0.9162372   -4.3232589   -0.0437591 
C    -1.5428351   -3.7430130   -1.1315846 
C    -2.5924322   -2.8324585   -0.6468591 
C    -1.5674546   -3.7427617    1.1756853 
C    -2.5250785   -2.7366753    0.7787440 
C    -0.5609565   -3.4143843    2.0463828 
C     0.5147365   -4.2337930    0.1141998 
C     0.7445332   -3.7862592    1.4671736 
C     1.2667423   -3.6163587   -0.9214730 
C    -0.8049778   -3.0232247   -2.1448237 
C     0.5898723   -2.9999016   -2.0574507 
C    -2.6081127   -1.6909862   -1.4639644 
C    -1.4928564   -1.7768449   -2.3981568 
C    -3.0036582   -0.4520706   -0.9047690 
C    -2.5096057   -1.4309715    1.3701768 
C    -3.0346075   -0.3374899    0.5513902 
C    -0.4582523   -2.0856691    2.5968953 
C    -1.4622076   -1.1030204    2.3370986 
C     1.6268434   -2.7464841    1.7532578 
C     0.9094780   -1.7062973    2.5382775 
C     2.3755075   -2.7524324   -0.5843121 
C     2.5822448   -2.3150683    0.7721824 
C     1.3117162   -1.7806424   -2.4149379 
C     2.5188331   -1.7624015   -1.6386806 
C    -0.8017171   -0.5813661   -2.7473025 
C     0.6562084   -0.5608443   -2.7575721 
C    -2.6613606    0.6961561   -1.6603224 
C    -1.5055817    0.6328191   -2.5157502 
C    -2.7504947    2.0211963   -1.1171323 
C    -2.9734500    0.9570284    1.0780468 
C    -3.0454876    2.1525296    0.2537021 
C    -1.0891955    0.2809962    2.5578616 
C    -2.0669672    1.2513160    2.1881844 
C     1.3148926   -0.3422967    2.5315875 
C     0.2973455    0.7063418    2.6516434 
C     3.1675669   -1.0393061    0.9923792 
C     2.5610126   -0.0552468    1.9271549 
C     3.1702576   -0.5589832   -1.4055803 
C     3.6934880   -0.3015547   -0.0846635 
C     1.3450826    0.7214269   -2.5268770 
C     2.6284968    0.6765181   -1.9224574 
C    -0.8521418    1.9218415   -2.4621843 
C    -1.7036571    2.8389227   -1.7176844 
C     0.5706776    1.9784585   -2.4154781 
C    -1.1360564    3.9070700   -0.9952927 
C    -2.4177964    3.2178499    0.9889273 
C    -1.7435784    2.6080632    2.1532347 
C    -1.5400380    4.1021501    0.3973979 
C     0.6577035    2.0959732    2.3462783 
C    -0.3972078    3.0695038    2.2140488 
C    -0.3107960    4.1337233    1.2301303 
C     2.8295746    1.2583560    1.4401682 
C     3.5275511    1.0913403    0.1914018 
C     3.0134848    1.7253929   -0.9672686 
C     1.9090391    2.3361590    1.6103310 
C     1.1165391    3.1053049   -1.6824045 
C     0.2792165    4.0361924   -1.0363939 
C     0.7619180    4.1513780    0.3624878 
C     2.2459832    2.8536947   -0.7922075 
C     1.8882527    3.3043627    0.5409128 
