60 

C     0.5390591    4.8363149    0.2440890 
C     1.1937510    4.5718339   -1.0267049 
C     0.1959880    3.9696274   -1.9030380 
C    -0.8237834    4.4482351    0.1577426 
C    -1.0812135    3.9669093   -1.1922925 
C    -1.1826521    3.6117245    1.2949077 
C     1.1223070    4.0304011    1.2762949 
C     0.0605941    3.3459202    2.0038195 
C     2.1605956    3.5819844   -0.7816478 
C     2.1230188    3.2220653    0.6541895 
C     0.6754735    2.7243151   -2.4045487 
C     1.9408183    2.4844556   -1.6974411 
C    -0.2098194    1.6133301   -2.6226733 
C    -1.9228251    2.8753527   -1.3441879 
C    -1.5649981    1.7820761   -2.2311327 
C    -2.1335927    2.5682294    1.1357969 
C    -2.5988731    2.2672466   -0.2021097 
C    -2.0336983    1.4503993    2.0309688 
C     0.3011904    2.0747148    2.5502092 
C    -0.8437869    1.2381103    2.7769456 
C     2.3076761    1.8768090    1.0507736 
C     1.5503693    1.3725753    2.1968962 
C     2.2862424    1.1937671   -1.3408866 
C     2.7008797    0.9043097    0.0467269 
C     0.3355431    0.2551701   -2.6245613 
C     1.6867438    0.0958289   -2.1023716 
C    -0.5200235   -0.9073275   -2.6126126 
C    -2.2977897    0.6307146   -1.8245338 
C    -2.9372221    0.9348448   -0.5494601 
C    -1.8897558   -0.6755130   -2.1459542 
C    -2.6081313    0.1411475    1.7339967 
C    -3.0893229   -0.1136775    0.4218543 
C    -0.7311965   -0.1864019    3.0123098 
C    -1.8565101   -0.8761262    2.4078097 
C     1.6450525    0.0054237    2.4856509 
C     0.5049695   -0.7864037    2.9693800 
C     2.8904266   -0.4535659    0.4098104 
C     2.4367019   -0.8876226    1.7034080 
C     2.1751972   -1.1780223   -1.8600955 
C     2.9183117   -1.4501611   -0.6279669 
C     0.0504165   -2.2633792   -2.5079053 
C     1.4529747   -2.3705055   -2.2245953 
C    -0.7892545   -3.3528426   -2.0324615 
C    -2.5503658   -1.7178358   -1.4208134 
C    -3.0230156   -1.4364131   -0.0455806 
C    -2.0806889   -3.0215885   -1.4726591 
C    -1.7460013   -2.2176870    1.9264612 
C    -2.5482313   -2.5176289    0.7724598 
C    -2.1637824   -3.5800320   -0.1215428 
C     0.6562116   -2.1576215    2.5406558 
C     1.9524319   -2.2427916    1.8925601 
C    -0.4564572   -2.9337009    2.0849027 
C     2.7646092   -2.8107096   -0.3453129 
C     1.9784802   -3.4365850   -1.4009500 
C     2.2099343   -3.2328583    0.9331706 
C    -0.2469619   -4.3744127   -1.1800744 
C    -1.0303012   -4.3300211    0.0857058 
C    -0.1349014   -4.0331484    1.1880698 
C     1.0959503   -4.3500493   -0.8112453 
C     1.1832378   -4.1792041    0.6697939 
