60 

C    -1.0807632    4.3697914    1.7414765 
C    -0.1819819    4.9535114    0.7965538 
C    -0.6151347    4.5500008   -0.5628323 
C    -2.0105273    3.5996440    0.9880141 
C    -1.7818127    3.7299850   -0.4480269 
C    -2.1554799    2.2722553    1.5451749 
C    -0.3504517    3.3714586    2.5106747 
C    -1.0760687    2.1172201    2.4990993 
C     1.0738851    4.3344545    0.9589832 
C     0.9898567    3.3260306    2.0394783 
C     0.4993157    4.0660277   -1.3209310 
C     1.5880584    3.9189897   -0.3403670 
C     0.2828595    3.0352909   -2.2465075 
C    -1.9603380    2.5875788   -1.2848978 
C    -1.0014049    2.3875766   -2.3335532 
C    -2.5308151    1.1953479    0.7385973 
C    -2.5806348    1.3782258   -0.7157211 
C    -2.2670600   -0.1319889    1.2689181 
C    -0.4073873    0.8810651    2.5582971 
C    -1.1802057   -0.2962277    2.1886639 
C     1.6696790    2.0721647    1.9096304 
C     1.0284168    0.8374527    2.3781433 
C     2.3740911    2.7928442   -0.3952833 
C     2.5480361    1.9389310    0.7834696 
C     1.2826612    1.9831540   -2.4597722 
C     2.3437443    1.8931029   -1.5500215 
C    -0.7784798    1.0630914   -2.8707434 
C     0.6346084    0.7724679   -2.9195230 
C    -2.5719067    0.1982240   -1.4746185 
C    -1.6419926    0.0330550   -2.5805911 
C    -2.6835520   -1.2799248    0.5021572 
C    -2.7908652   -1.1028051   -0.9082127 
C    -2.3494591   -2.5661856    0.9864115 
C    -0.5843698   -1.5988171    2.3964358 
C    -1.3587583   -2.7337451    2.0114274 
C     1.6099203   -0.4542802    2.0945949 
C     0.8714185   -1.6820852    2.3878238 
C     2.8944937    0.6533913    0.3231601 
C     2.7489331    0.5977971   -1.1279381 
C     2.6377299   -0.5080322    1.0794165 
C     1.1107678   -0.5378181   -2.6203119 
C     2.2825547   -0.5984588   -1.7540187 
C    -1.1999489   -1.3355975   -2.5814306 
C    -2.1175738   -2.0795805   -1.7494603 
C     0.1828922   -1.6760536   -2.5771434 
C    -2.2080296   -3.6892785    0.0550185 
C    -1.7934485   -3.3376468   -1.2871088 
C    -0.7361233   -4.0352461    1.7847297 
C    -1.3083877   -4.6280959    0.5698357 
C     1.4539368   -2.9440831    1.9845370 
C     0.6450025   -4.1117673    1.7342399 
C     2.8509436   -1.7228285    0.3755447 
C     2.5349635   -1.7876847   -1.0506909 
C     2.4251582   -2.9165973    0.9370986 
C     0.5732760   -2.9786084   -1.9828059 
C    -0.4545403   -3.8854113   -1.5025080 
C    -0.2199730   -4.7786198   -0.3809714 
C     0.9844352   -4.6338045    0.3562333 
C     1.8546744   -3.0388882   -1.3200891 
C     2.0011618   -3.8399696   -0.1377597 
