60 

C    -1.7806482   -3.9568301    0.4052171 
C    -0.4130271   -4.1363893    0.1232438 
C     0.3898509   -3.6223973    1.2021333 
C    -1.8895245   -3.1937319    1.6185559 
C    -0.5421929   -2.9177816    2.0817576 
C    -2.6743205   -2.0603704    1.3284923 
C    -2.3491755   -3.1764639   -0.6698614 
C    -3.0191123   -2.0799532   -0.1201139 
C    -0.1394457   -3.6811657   -1.2348652 
C    -1.3204606   -2.9405741   -1.6883258 
C     1.1127108   -3.2122592   -1.5233312 
C     1.6815477   -3.1059391    0.9221329 
C     2.1295886   -3.1028989   -0.4607812 
C     2.1393224   -2.0327540    1.7461500 
C    -0.1926048   -1.6322020    2.6040716 
C     1.1896556   -1.2906972    2.5478177 
C    -2.4423082   -0.7989359    1.9488078 
C    -1.1745324   -0.5379098    2.6142126 
C    -3.1654047    0.2741154    1.3637890 
C    -3.1085259   -0.8618181   -0.8406731 
C    -3.4986411    0.2602044   -0.0836464 
C    -1.1842561   -1.6721048   -2.2913942 
C    -2.2250036   -0.6681764   -2.0103437 
C     1.2670272   -2.0600537   -2.4016950 
C     0.1726084   -1.2123812   -2.6838130 
C     3.0383829   -2.1251708   -0.8856574 
C     2.5289578   -1.4794077   -2.0923800 
C     3.1347853   -1.0845927    1.2942643 
C     3.5694686   -1.1048062   -0.0393307 
C     1.6403620    0.0809287    2.6682513 
C     2.8808364    0.1908135    1.9371838 
C    -0.7224367    0.8460011    2.7381554 
C     0.7139599    1.1535221    2.7486523 
C    -2.8527746    1.5888160    1.7060883 
C    -1.6082369    1.8894495    2.3170880 
C    -3.3365068    1.5908155   -0.5745624 
C    -3.0168235    2.4453270    0.5276956 
C    -2.0095197    0.6419831   -2.4464885 
C    -2.6367348    1.7819940   -1.8007843 
C     0.4529293    0.2178850   -2.8421721 
C    -0.6735839    1.0772312   -2.9062519 
C     2.7605568   -0.0994757   -2.0267581 
C     3.5447391    0.1456947   -0.8093386 
C     1.7349725    0.8073040   -2.4381473 
C     3.1960898    1.3795588    1.2782766 
C     3.4331779    1.3547639   -0.1674661 
C     1.1668372    2.4372781    2.2516855 
C     2.3869059    2.5119498    1.5362055 
C    -1.1096870    3.1062041    1.6479066 
C    -1.9575860    3.3711211    0.4805542 
C     0.2405781    3.3429958    1.5881929 
C    -1.7519073    2.8863544   -1.9060008 
C    -0.5472436    2.4493577   -2.6225737 
C    -1.3398381    3.6429642   -0.7823971 
C     1.7805337    2.1670518   -1.8917875 
C     2.6465322    2.4305559   -0.7686074 
C     2.1722342    3.2446721    0.2947136 
C     0.8634816    3.7873358    0.3211308 
C     0.6009132    2.9706153   -1.9813006 
C     0.1125170    3.7723770   -0.8515777 
