60 

C    -1.2651193    4.2657604    0.8268473 
C     0.1348852    4.3785270    0.5845762 
C     0.3755615    4.0717762   -0.8155392 
C    -1.8943929    3.7830383   -0.3562927 
C    -0.8895710    3.6174009   -1.3934485 
C    -2.7125398    2.6667874    0.0075198 
C    -1.4661419    3.2875597    1.8694315 
C    -2.3983598    2.3116215    1.4161268 
C     0.8297162    3.6280401    1.6013163 
C    -0.1859172    2.8560998    2.3452431 
C     2.0382286    3.0187430    1.2561953 
C     1.5700298    3.4172442   -1.1467631 
C     2.4674353    3.0748276   -0.0989633 
C     1.5689747    2.2747290   -2.0690873 
C    -0.9218818    2.4600175   -2.2283000 
C     0.3486671    1.8067025   -2.6175995 
C    -2.8830979    1.6534921   -0.9143825 
C    -2.0648202    1.5877346   -2.1083076 
C    -3.1413446    0.3098333   -0.4627410 
C    -2.2614781    0.9589208    1.7817316 
C    -2.9003450   -0.0321955    0.9043713 
C     0.0276353    1.4865596    2.6493862 
C    -1.0832778    0.5411287    2.5420876 
C     2.3453056    1.6707242    1.7346991 
C     1.3813807    0.9435788    2.4686364 
C     3.0986000    1.7974763   -0.4222378 
C     2.6023092    1.3199310   -1.6561379 
C     3.1189193    0.9660142    0.7133110 
C     2.4885067   -0.0799076   -1.8635229 
C     0.3433433    0.4298993   -3.0151223 
C     1.4431495   -0.4799944   -2.7333213 
C    -2.0034697    0.2046847   -2.4612078 
C    -2.7461055   -0.6006030   -1.4940680 
C    -0.8524745   -0.3587589   -3.0164508 
C    -2.4346640   -1.9576327   -1.2232309 
C    -2.7134666   -1.3889760    1.1658403 
C    -2.6878112   -2.3793611    0.1184257 
C    -0.8297335   -0.8757066    2.7175276 
C    -1.7904357   -1.8246286    2.2194590 
C     1.5741423   -0.4675547    2.5135734 
C     0.5191744   -1.3660543    2.8278298 
C     3.0648187   -0.4441011    0.5561126 
C     2.9028731   -1.0072541   -0.7895056 
C     2.5212131   -1.1586223    1.6513100 
C     2.5072851   -2.3570260   -0.8765358 
C     0.9254205   -1.8081301   -2.6934657 
C    -0.5208114   -1.7474451   -2.7749512 
C    -1.3217686   -2.6094085   -1.9695123 
C     1.5551104   -2.7882944   -1.9094252 
C    -0.6613871   -3.7597351   -1.3918590 
C     0.7680113   -3.8393533   -1.4083823 
C    -2.0007265   -3.5164801    0.6551244 
C    -1.4321622   -3.1565030    1.9501685 
C    -1.0557563   -4.2189035   -0.0768531 
C     0.9085330   -2.6984710    2.3613420 
C     2.1135559   -2.5190098    1.5457670 
C     2.2424056   -3.1738578    0.3032361 
C     1.2436710   -4.1462073   -0.0466734 
C    -0.0574715   -3.6278129    1.9765090 
C     0.1476688   -4.4008641    0.7701830 
