60 

C    -1.7205875   -3.7688435   -0.3047397 
C    -1.9466733   -3.4605312    1.0287664 
C    -0.6623821   -3.5816825    1.7552328 
C    -0.2961425   -4.1092183   -0.4604935 
C     0.3448179   -4.0080059    0.8232174 
C     0.2053389   -3.3739283   -1.5546302 
C    -2.0869382   -2.8282798   -1.3314491 
C    -0.9006736   -2.5933332   -2.1322753 
C    -2.9061838   -1.7407866   -0.9988948 
C    -2.5869663   -2.2339553    1.4001473 
C    -3.1916779   -1.4559318    0.3912293 
C    -0.4997414   -2.3934312    2.4883020 
C    -1.7223021   -1.5808880    2.3507269 
C     0.7886209   -1.7431178    2.5719543 
C     1.6124390   -3.4208243    0.9023422 
C     1.8698081   -2.3944665    1.9086008 
C     1.5453891   -2.8301623   -1.5199191 
C     2.2982300   -2.9908139   -0.3013015 
C     1.7753230   -1.6613622   -2.2994621 
C    -0.6720866   -1.3496145   -2.7693873 
C     0.6992993   -0.9791828   -2.9517741 
C    -2.7419783   -0.4697213   -1.6801107 
C    -1.6815040   -0.2726520   -2.6327798 
C    -3.2139064   -0.0338192    0.5398824 
C    -3.1035033    0.5832170   -0.7853444 
C    -1.6783521   -0.1861065    2.4788734 
C    -2.5952247    0.6009491    1.6376676 
C     0.8277522   -0.2959856    2.8013060 
C    -0.4277836    0.4370905    2.9310902 
C     2.0002800    0.4473910    2.3531282 
C     2.9658848   -1.6052172    1.4205132 
C     3.2323614   -1.9663786    0.0737186 
C     2.9714560   -0.1939755    1.5437528 
C     2.7228497   -0.6177983   -1.8805637 
C     3.3866100   -0.7465701   -0.6647017 
C     3.3332584    0.3799139    0.2570773 
C     1.0625187    0.4217454   -3.0990086 
C     2.2499267    0.6710021   -2.3268519 
C    -1.3046723    1.0618784   -2.8913590 
C     0.0775509    1.3932527   -3.1961457 
C    -2.6491786    1.9151786   -0.9601936 
C    -1.8499576    2.1840118   -2.1276129 
C    -2.3848533    2.0148525    1.5185283 
C    -2.4242505    2.7006417    0.2070333 
C    -0.3964915    1.8671393    2.9564949 
C    -1.4664783    2.6491011    2.3495670 
C     1.9061978    1.8575290    2.1431810 
C     0.8062771    2.5592023    2.6579078 
C     2.8630379    1.6586438   -0.1453270 
C     2.3697635    1.8496359   -1.5160973 
C     2.3265618    2.4752427    0.8892181 
C     0.3539261    2.6861201   -2.6570864 
C    -0.8643984    3.2028339   -2.0651756 
C     1.4214480    2.9025319   -1.7604993 
C    -1.4292367    3.7389893    0.2402687 
C    -0.8684741    3.7400395    1.5737473 
C     0.5018214    3.6651329    1.7405464 
C     1.4064391    3.5683477    0.6135314 
C    -0.5505964    3.9018086   -0.8639122 
C     0.8980074    3.7531615   -0.6704570 
