60 

C    -1.4235945   -4.5174582    0.5849588 
C    -0.4928285   -4.8054736   -0.4636609 
C     0.7823941   -4.4386401   -0.0198301 
C    -0.6835222   -3.8643887    1.6836644 
C     0.6881616   -3.8308424    1.3371647 
C    -1.3065683   -2.6167763    2.0292182 
C    -2.2988198   -3.5228938    0.1071645 
C    -2.4105856   -2.4680972    1.0852206 
C    -0.7773203   -3.8679736   -1.5894676 
C    -1.9352648   -3.1207645   -1.2628601 
C     1.4276290   -3.6504070   -1.0618221 
C     0.3981646   -3.1656898   -1.9884950 
C     2.4090287   -2.8020494   -0.6805004 
C     1.4852007   -2.6941087    1.6487312 
C     2.6010649   -2.4873183    0.7594324 
C    -0.5602284   -1.4471024    2.3595588 
C     0.8919685   -1.4904541    2.2606762 
C    -1.2633534   -0.1597211    2.2909171 
C    -2.8215931   -1.2193106    0.6783199 
C    -2.5285404   -0.1104922    1.5729042 
C    -2.0149807   -1.7564807   -1.6092315 
C    -2.8522545   -0.9346310   -0.7576982 
C     0.3678426   -1.7652584   -2.3226982 
C    -0.9045931   -1.0754862   -2.2737752 
C     2.6577988   -1.5728265   -1.4223332 
C     1.5945560   -0.9604165   -2.1577858 
C     3.2869718   -1.2992698    0.7950599 
C     3.4727422   -0.7805106   -0.5790560 
C     1.6193529   -0.2211275    2.2512782 
C     2.8946001   -0.1900336    1.5931134 
C    -0.5462305    1.0811882    2.4855036 
C     0.9130480    1.0587136    2.4216408 
C    -1.2262875    2.3303610    2.2107926 
C    -3.1012686    1.1231322    1.2210180 
C    -2.5158272    2.3265436    1.6528954 
C    -3.0364203    0.3837373   -1.1394741 
C    -3.4488523    1.3413879   -0.1794682 
C    -0.9390713    0.3758783   -2.4280703 
C    -2.1353508    1.0519107   -2.0695580 
C     1.5647812    0.4977392   -2.2192434 
C     0.2985321    1.1640496   -2.5094318 
C     3.4330306    0.5960163   -0.5641168 
C     3.2878390    0.9834772    0.8555361 
C     2.6124436    1.2750569   -1.5344935 
C     1.5654468    2.2686382    2.0173414 
C     2.7296088    2.1953466    1.1625743 
C    -0.5273476    3.4983843    1.6565498 
C     0.8486301    3.4844581    1.6020362 
C    -2.5437207    3.3208652    0.5423449 
C    -3.0460506    2.6517186   -0.5925737 
C    -2.1894960    2.4738048   -1.7559676 
C    -1.3198440    4.0050753    0.5161155 
C     0.1976210    2.5858427   -2.3337603 
C    -1.0314141    3.2221682   -1.8442020 
C    -0.6549335    4.1452875   -0.7525237 
C     2.4038108    2.6536014   -1.2682746 
C     2.5687829    3.1509501    0.1060913 
C     1.5111877    4.0404597    0.4293132 
C     1.2804180    3.3185989   -1.7817607 
C     0.7435059    4.2316108   -0.7550024 
