60 

C     0.0805200    4.1334846   -0.6757594 
C     1.0228915    4.0280939    0.3414344 
C     0.3203503    3.7099900    1.5969945 
C    -1.2420060    3.8812964   -0.0907370 
C    -1.0755171    3.5936745    1.3170126 
C    -1.9183192    2.9755175   -0.9194727 
C     0.2044407    3.3312552   -1.8626835 
C    -1.0542599    2.6449408   -2.0668965 
C     1.3826827    2.6110137   -2.0776989 
C     2.1505400    3.1499775    0.2122378 
C     2.3950725    2.5412315   -1.0317317 
C     1.0214190    2.6487668    2.2106846 
C     2.2008548    2.3265273    1.4060007 
C     0.2945972    1.5808646    2.8607862 
C    -1.7906859    2.5015509    1.8641405 
C    -1.1194064    1.5523456    2.7283754 
C    -2.7640296    1.9440956   -0.3395504 
C    -2.7214520    1.7533156    1.0765006 
C    -3.0471879    0.8331090   -1.1583728 
C    -1.1247364    1.3706093   -2.6696421 
C    -2.2895852    0.5918658   -2.3503629 
C     1.3326402    1.3075575   -2.7220998 
C     0.1100967    0.6493268   -3.0191678 
C     2.9902767    1.2292474   -1.0780801 
C     2.4637668    0.5513094   -2.2529393 
C     2.7274119    1.0101819    1.3777286 
C     3.2455554    0.4803350    0.1089726 
C     0.9668880    0.3299205    3.0033270 
C     2.2001528    0.0778764    2.3325438 
C     0.2435108   -0.9286454    3.1506952 
C    -1.8185887    0.2793151    2.6484189 
C    -2.7951516    0.3929660    1.6193617 
C    -1.1704364   -0.9631873    2.9129411 
C    -3.3919369   -0.4849328   -0.5896869 
C    -3.1665615   -0.7321789    0.8185230 
C    -2.3181482   -0.8120868   -2.5898278 
C    -3.0749904   -1.4649662   -1.5413977 
C     0.1055714   -0.8339693   -3.0319592 
C    -1.1295119   -1.5372509   -2.7863184 
C     2.4819356   -0.8335004   -2.3389561 
C     1.2810159   -1.5464374   -2.7188757 
C     3.3515010   -0.9507148   -0.0407915 
C     3.1061485   -1.5608272   -1.2933425 
C     2.2859844   -1.3590986    2.1347012 
C     1.0979924   -1.9868942    2.6982311 
C     2.8693165   -1.8687973    0.9879924 
C     0.5454944   -3.1288692    2.0869446 
C    -1.7165920   -2.1399280    2.2899790 
C    -2.6837273   -2.0174295    1.2002337 
C    -0.8628094   -3.2302531    1.9917083 
C    -2.3903727   -2.6677092   -1.1699874 
C    -1.1922373   -2.7649556   -1.9706493 
C    -2.3464810   -3.0228232    0.1928483 
C    -1.2067880   -3.7253380    0.6627082 
C     1.2374965   -2.8011554   -1.9344951 
C     2.3634205   -2.7885626   -1.0905570 
C     2.2563174   -3.0347079    0.3201032 
C     1.0997011   -3.6080720    0.8170335 
C     0.0015687   -3.3488143   -1.4544807 
C    -0.0256132   -3.8694562   -0.1026421 
