60 

C     4.5228909    1.6572359    0.5653122 
C     4.5932104    0.3547718    1.2038911 
C     4.8004789   -0.6479811    0.2317606 
C     4.3826667    1.4080160   -0.8536690 
C     4.6852513    0.0300801   -1.0860220 
C     3.0938930    1.9032502   -1.2940928 
C     3.3105004    2.2460166    1.0034811 
C     2.4855606    2.5386423   -0.1450798 
C     3.4680761    0.2327123    2.1292899 
C     2.6725768    1.4533726    2.0223193 
C     2.7668874   -0.9704717    2.1998692 
C     3.9575912   -1.8153475    0.1926240 
C     3.0095691   -2.0323331    1.2242124 
C     3.8433476   -0.7404629   -1.8902747 
C     3.4777236   -1.9589774   -1.1660843 
C     2.2190847    1.1254442   -2.1571504 
C     2.6418529   -0.2123923   -2.4767602 
C     0.8016581    1.4071165   -2.1308224 
C     1.1002223    2.6317213    0.0012479 
C     0.3019680    2.3777316   -1.1728016 
C     1.2518379    1.4560078    2.1455501 
C     0.4775848    2.3115379    1.2730976 
C     1.3446288   -0.9481039    2.4972951 
C     0.5729620    0.2485555    2.5723899 
C     1.7138090   -2.5848595    0.9100739 
C     0.7447493   -2.0647831    1.8462911 
C     2.1412569   -2.2726209   -1.4592447 
C     1.6345849   -1.2347833   -2.3694536 
C     1.2500778   -2.7088983   -0.4337734 
C    -0.1862239    0.4124102   -2.5165474 
C     0.2724047   -0.9607805   -2.4423588 
C    -1.6227137    0.6962177   -2.4552155 
C    -1.0623174    2.6226461   -1.0566707 
C    -2.0529614    1.9538371   -1.8945337 
C    -0.9515213    2.3199370    1.3615291 
C    -1.6579133    2.8454305    0.2251669 
C    -0.8741034    0.1462149    2.5066892 
C    -1.6543711    1.3273981    2.1588792 
C    -0.6416134   -2.1523010    1.6457833 
C    -1.4770157   -1.1529681    2.2732969 
C    -0.1761405   -2.6523975   -0.6926341 
C    -0.6489319   -1.9260964   -1.8472910 
C    -1.1123523   -2.7486261    0.4069413 
C    -2.5554353   -0.3703975   -2.3792625 
C    -2.0317407   -1.7004124   -2.0257903 
C    -3.8805124   -0.2306038   -1.7734726 
C    -3.3160901    2.0945605   -1.2965066 
C    -3.0633708    2.6535650    0.0542065 
C    -4.2435048    1.0119037   -1.1667175 
C    -3.0880854    1.2069747    2.0109837 
C    -3.8035712    1.9494740    0.9699306 
C    -4.6821386    1.0082491    0.2283302 
C    -2.8887976   -1.2469767    2.0514314 
C    -3.6885203   -0.0659795    2.0489797 
C    -4.6958236   -0.1797774    0.9534724 
C    -2.5021084   -2.7194387    0.1257217 
C    -2.9605971   -2.3177549   -1.1791809 
C    -4.1358664   -1.4568660   -1.0468859 
C    -3.4021823   -2.1292405    1.0523039 
C    -4.4823819   -1.4283990    0.3159448 
