60 

C    -0.8335362   -4.4143677   -0.2017235 
C    -0.3468395   -4.1609734    1.0783654 
C     1.0957905   -3.9168246    1.0205912 
C     0.3149838   -4.2141640   -1.1155520 
C     1.4813088   -3.8242777   -0.3580090 
C    -0.1211887   -3.3902097   -2.1378517 
C    -1.9480769   -3.6407249   -0.7175819 
C    -1.5473676   -3.0968747   -1.9812551 
C    -2.6134526   -2.7592060    0.1627533 
C    -0.9138188   -3.1494148    1.9406222 
C    -2.0929810   -2.5293169    1.5298846 
C     1.4019422   -2.8836506    1.9432203 
C     0.1600320   -2.3146733    2.4596128 
C     2.4549571   -2.0459471    1.6497106 
C     2.2783077   -2.7044773   -0.7664330 
C     2.9872365   -2.0557775    0.2919099 
C     0.5633606   -2.1571554   -2.4648278 
C     1.8067759   -1.8232032   -1.8685434 
C    -1.7335015   -1.7321869   -2.2965484 
C    -0.4550674   -1.1547254   -2.6939424 
C    -3.0830134   -1.4885674   -0.3101570 
C    -2.6093641   -0.9068574   -1.5367253 
C    -2.3028775   -1.1587524    1.8741693 
C    -3.1527226   -0.6163737    0.8383237 
C     0.0327890   -0.8976093    2.6202101 
C    -1.2848036   -0.3112103    2.4159385 
C     2.4504719   -0.6641271    2.1046948 
C     1.2222606   -0.0355307    2.4820592 
C     3.5338462   -0.7820795    0.0806071 
C     3.3627364    0.0309602    1.2597155 
C     2.1838759   -0.4172070   -1.9330231 
C     3.2219188    0.0343134   -1.0578906 
C    -0.1897163    0.2213279   -2.5973966 
C     1.2092642    0.5911424   -2.4060606 
C    -2.4615579    0.5375407   -1.6410901 
C    -1.2786109    1.1409335   -2.2464890 
C    -3.2662971    0.7203733    0.6843582 
C    -3.1547890    1.3186719   -0.6564728 
C    -1.4348810    1.1399320    2.2859402 
C    -2.6213866    1.6155560    1.6189506 
C     1.0692027    1.4101962    2.2333090 
C    -0.2572673    2.0127668    2.2859701 
C     3.1432067    1.3521052    0.8632823 
C     3.2529809    1.3886540   -0.6097265 
C     2.1293553    2.1209034    1.4931134 
C     1.4667305    1.9575765   -2.1846120 
C     2.5552057    2.3663841   -1.2946622 
C    -0.9767337    2.5596648   -2.0334776 
C     0.4095033    2.9545595   -2.0917324 
C    -2.8677075    2.6594182   -0.4639568 
C    -2.6540995    2.8865036    0.9919861 
C    -1.8492060    3.3559207   -1.1791687 
C    -0.4135244    3.3962409    1.8022463 
C    -1.6432257    3.7959550    1.1348463 
C    -1.2773812    4.2765454   -0.2199679 
C     1.8436420    3.3654272    0.8234226 
C     2.1323022    3.5045225   -0.5914600 
C     0.9033309    3.9795152   -1.2082713 
C     0.6354414    4.0340607    1.0970091 
C     0.0822357    4.5187949   -0.2022140 
