60 

C     3.9943866   -0.3457229   -2.1747655 
C     3.0639676    0.5087784   -2.8945634 
C     2.9393671    1.7266405   -2.2106866 
C     4.2972250    0.3117419   -0.9278956 
C     3.7048824    1.6141994   -0.9485981 
C     3.9081853   -0.5314001    0.1628640 
C     3.2360418   -1.4999671   -1.8342400 
C     3.2258105   -1.6988738   -0.4169143 
C     1.8365016   -0.2138854   -3.1740104 
C     1.9449449   -1.4815387   -2.4864911 
C     0.5795480    0.4343539   -3.1606388 
C     1.6522835    2.2512532   -1.9100002 
C     0.4721442    1.7277403   -2.5111243 
C     2.8759488    2.0675541    0.0943727 
C     1.6177374    2.5503084   -0.5029606 
C     3.3595845    0.0192975    1.3468930 
C     2.7874172    1.3671582    1.3388034 
C     2.7187605   -0.9342738    2.1951526 
C     2.0805680   -2.2713955    0.2102046 
C     1.9724900   -2.0534000    1.5940004 
C     0.7872359   -2.0785108   -1.9021988 
C     0.8361915   -2.5137980   -0.5250999 
C    -0.5795480   -0.4343539   -3.1606388 
C    -0.4721442   -1.7277403   -2.5111243 
C    -1.8365016    0.2138854   -3.1740104 
C    -0.7872359    2.0785108   -1.9021988 
C    -1.9449449    1.4815387   -2.4864911 
C     0.4109729    2.6168125    0.2251159 
C    -0.8361915    2.5137980   -0.5250999 
C     1.6756332    1.6860803    2.2221862 
C     0.4841131    2.3752245    1.6643923 
C     2.0075340   -0.4997424    3.2950902 
C     1.4956955    0.8412915    3.3747248 
C     0.7554768   -2.2482324    2.3433750 
C     0.8635958   -1.4188522    3.5103118 
C    -0.4109729   -2.6168125    0.2251159 
C    -0.4841131   -2.3752245    1.6643923 
C    -1.6522835   -2.2512532   -1.9100002 
C    -1.6177374   -2.5503084   -0.5029606 
C    -3.0639676   -0.5087784   -2.8945634 
C    -2.9393671   -1.7266405   -2.2106866 
C    -3.2360418    1.4999671   -1.8342400 
C    -3.9943866    0.3457229   -2.1747655 
C    -2.0805680    2.2713955    0.2102046 
C    -3.2258105    1.6988738   -0.4169143 
C    -0.7554768    2.2482324    2.3433750 
C    -1.9724900    2.0534000    1.5940004 
C     0.2047942    0.7199958    4.0027006 
C    -0.2047942   -0.7199958    4.0027006 
C    -0.8635958    1.4188522    3.5103118 
C    -1.6756332   -1.6860803    2.2221862 
C    -2.7187605    0.9342738    2.1951526 
C    -1.4956955   -0.8412915    3.3747248 
C    -2.0075340    0.4997424    3.2950902 
C    -2.8759488   -2.0675541    0.0943727 
C    -3.7048824   -1.6141994   -0.9485981 
C    -4.2972250   -0.3117419   -0.9278956 
C    -3.9081853    0.5314001    0.1628640 
C    -2.7874172   -1.3671582    1.3388034 
C    -3.3595845   -0.0192975    1.3468930 
