60 

C    -1.3571401    3.8988664    1.3834846 
C    -0.6320565    4.1856868    0.2026201 
C    -1.3059283    3.5534650   -0.9243113 
C    -2.4654327    3.0751357    1.0661194 
C    -2.5039555    2.9339701   -0.3715379 
C    -2.3645019    1.8650117    1.8407243 
C    -0.4771987    3.1485586    2.2736350 
C    -1.1182656    1.8941139    2.5839265 
C     0.7554049    3.8778965    0.4629372 
C     0.8352929    3.1607514    1.7671554 
C     1.5218595    3.4298797   -0.5769939 
C    -0.5443997    2.8659857   -1.9164275 
C     0.8885383    3.0366513   -1.8442613 
C    -1.0486573    1.6045903   -2.5034445 
C    -2.9444131    1.7296547   -0.8914368 
C    -2.3111446    1.1284498   -2.0469775 
C    -2.8372559    0.6269681    1.3307615 
C    -3.3236444    0.6348858   -0.0132540 
C    -2.2732044   -0.6058276    1.8673261 
C    -0.3472297    0.7237284    2.7575703 
C    -1.0038752   -0.5789859    2.5613544 
C     1.6700104    2.0173318    1.9258415 
C     1.0999909    0.8532572    2.6176342 
C     2.6399267    2.5172216   -0.3141525 
C     2.7419735    1.8127673    0.9472051 
C     1.7345318    2.0583201   -2.3792336 
C     2.8897294    1.8249080   -1.5053002 
C    -0.1142381    0.5752131   -2.9828382 
C     1.2900980    0.8113989   -2.8817855 
C    -0.4835547   -0.7984192   -2.9858959 
C    -2.6539204   -0.2773491   -2.0533022 
C    -3.3124915   -0.5718562   -0.7907361 
C    -1.7871988   -1.2298186   -2.5762628 
C    -2.6847751   -1.8293257    1.2225584 
C    -3.1338982   -1.7928638   -0.1758012 
C    -1.9932611   -3.0296085    1.4208796 
C    -0.1962606   -1.8047580    2.6099513 
C    -0.7173623   -3.0430592    2.0729104 
C     1.8543779   -0.3451697    2.6121895 
C     1.2166127   -1.6622732    2.6172488 
C     3.3828220    0.5476210    0.8986574 
C     3.0499024   -0.4332458    1.8702775 
C     3.1822995    0.4322857   -1.5361788 
C     2.2030031   -0.2164941   -2.4095129 
C     3.5603489   -0.1849946   -0.3548577 
C     0.4449158   -1.8493930   -2.6096707 
C     1.7688653   -1.5422776   -2.1624121 
C    -1.6954878   -2.5692064   -2.0037006 
C    -2.4602531   -2.8900723   -0.8689162 
C    -1.8810287   -3.7282701    0.1365202 
C    -0.2943293   -2.9674854   -2.0711457 
C     0.1276349   -3.8925380    1.2803739 
C    -0.5673906   -4.1876581    0.0288656 
C     0.2802764   -3.7496408   -1.0483499 
C     2.0488145   -2.5496129    1.8173610 
C     3.0842621   -1.7547613    1.2704946 
C     3.2178165   -1.5849123   -0.1258460 
C     2.3333990   -2.2974280   -1.0284622 
C     1.4458000   -3.5021444    0.9844380 
C     1.5652466   -3.3551252   -0.4780161 
