60 

C    -5.0716234    1.0654036    0.2976406 
C    -4.6807821    0.8337787   -1.0636671 
C    -4.6756283   -0.5617995   -1.3276546 
C    -4.9865276   -0.2411946    0.9733023 
C    -4.7150711   -1.2344142    0.0003205 
C    -4.0505875   -0.1286897    2.0328103 
C    -4.0571754    1.8752498    0.8883206 
C    -3.5575147    1.2673063    2.0742732 
C    -3.4258949    1.5614509   -1.3322262 
C    -3.0571725    2.2417007   -0.1193863 
C    -2.3848535    0.9907923   -2.1378013 
C    -3.6363124   -1.1336595   -2.0700908 
C    -2.5385239   -0.3814697   -2.5652136 
C    -3.5650894   -2.1035002    0.0866857 
C    -3.0218965   -2.1743100   -1.2344131 
C    -2.9077040   -0.9796402    2.1521265 
C    -2.5961188   -1.9845811    1.1647452 
C    -2.1847165    1.2580536    2.3540483 
C    -1.8146901   -0.1355583    2.5896094 
C    -1.6903781    2.3967587    0.2363805 
C    -1.2409609    2.0002978    1.5566594 
C    -1.0357639    1.4711332   -1.9438547 
C    -0.6948244    2.2584921   -0.7989851 
C     0.0677178    0.7253845   -2.5575317 
C    -1.3372892   -1.2368481   -2.4723185 
C    -1.6430849   -2.2653415   -1.5009725 
C    -0.0677178   -0.7253845   -2.5575317 
C    -1.1800869   -2.2549862    0.8961567 
C    -0.7044430   -2.4623502   -0.4580901 
C    -0.4985974   -0.5308657    2.5029174 
C    -0.1583900   -1.7270730    1.7762091 
C     0.1583900    1.7270730    1.7762091 
C     0.4985974    0.5308657    2.5029174 
C     0.7044430    2.4623502   -0.4580901 
C     1.1800869    2.2549862    0.8961567 
C     1.3372892    1.2368481   -2.4723185 
C     1.6430849    2.2653415   -1.5009725 
C     2.5385239    0.3814697   -2.5652136 
C     1.0357639   -1.4711332   -1.9438547 
C     0.6948244   -2.2584921   -0.7989851 
C     2.3848535   -0.9907923   -2.1378013 
C     1.2409609   -2.0002978    1.5566594 
C     1.6903781   -2.3967587    0.2363805 
C     1.8146901    0.1355583    2.5896094 
C     2.1847165   -1.2580536    2.3540483 
C     2.5961188    1.9845811    1.1647452 
C     2.9077040    0.9796402    2.1521265 
C     3.0218965    2.1743100   -1.2344131 
C     3.6363124    1.1336595   -2.0700908 
C     3.5650894    2.1035002    0.0866857 
C     4.6756283    0.5617995   -1.3276546 
C     4.7150711    1.2344142    0.0003205 
C     3.4258949   -1.5614509   -1.3322262 
C     3.0571725   -2.2417007   -0.1193863 
C     4.6807821   -0.8337787   -1.0636671 
C     3.5575147   -1.2673063    2.0742732 
C     4.0505875    0.1286897    2.0328103 
C     4.9865276    0.2411946    0.9733023 
C     4.0571754   -1.8752498    0.8883206 
C     5.0716234   -1.0654036    0.2976406 
