60 

C    -0.2336555    4.6416649    1.2411966 
C     1.1165059    4.5228841    0.9534257 
C     1.2990248    4.2652906   -0.4816058 
C    -0.9877534    4.4471012    0.0108324 
C    -0.0245804    4.2416733   -1.0835632 
C    -1.9281104    3.4332527    0.2596972 
C    -0.5979138    3.5942739    2.1933566 
C    -1.6853763    2.8985934    1.6425312 
C     1.6760221    3.4275494    1.7177893 
C     0.5878341    2.8085029    2.4833525 
C     2.1122159    3.1202555   -0.5940745 
C     2.3454210    2.6070476    0.7965511 
C     1.9204891    2.1608843   -1.6380586 
C    -0.2869614    3.2472393   -2.0251571 
C     0.7399480    2.3269685   -2.4441830 
C    -2.3116159    2.5049145   -0.7674640 
C    -1.5276473    2.4543194   -1.9680407 
C    -2.8970654    1.2933089   -0.3572358 
C    -1.8649595    1.5113478    1.9033814 
C    -2.7608577    0.8274965    1.0435036 
C     0.5109351    1.3975340    2.5654034 
C    -0.7853258    0.7284822    2.4974973 
C     2.4338276    1.2197330    1.0111919 
C     1.6313090    0.6151048    2.0594063 
C     2.4571230    0.8305217   -1.4647253 
C     2.8314066    0.4034186   -0.1152561 
C     2.0154504   -0.2091810   -2.3375364 
C     0.0878659    1.1550139   -2.9784390 
C    -1.3263578    1.2085277   -2.6460275 
C     0.7339938   -0.0580862   -3.0042378 
C    -2.8971340    0.1292873   -1.1709309 
C    -2.0085071    0.0072264   -2.2853045 
C    -2.8766073   -0.5621357    1.0815345 
C    -3.0873692   -1.0049071   -0.2971388 
C    -0.8597504   -0.7161188    2.5009563 
C    -2.0432408   -1.3604790    1.9391736 
C     1.6084448   -0.8045506    2.1947956 
C     0.3806477   -1.4915164    2.6092885 
C     3.0142268   -0.9537732    0.1555208 
C     2.5741353   -1.5234529    1.4146722 
C     2.1523860   -1.5927779   -2.0333635 
C     2.8385147   -1.9799224   -0.8718755 
C     0.0173611   -1.3138564   -2.9044376 
C    -1.3607599   -1.3046776   -2.5264470 
C     0.9223093   -2.3069678   -2.3918379 
C    -2.7437662   -2.2745363   -0.7004665 
C    -1.8123963   -2.4549486   -1.8214123 
C    -2.0179523   -2.7564132    1.6377485 
C    -2.4376889   -3.2261231    0.3034285 
C     0.3157273   -2.9133798    2.4453896 
C    -0.8942345   -3.5183099    1.9829086 
C     2.4365129   -2.9227174    1.2170765 
C     2.4919560   -3.1922119   -0.2475366 
C     1.3813858   -3.6172877    1.7525130 
C     0.4761485   -3.4592481   -1.6608205 
C    -0.9522854   -3.5599699   -1.4634182 
C    -1.4648912   -4.1266594   -0.2150130 
C    -0.5787242   -4.4404092    0.8429075 
C     1.3609548   -3.9668731   -0.6121954 
C     0.7834051   -4.4179279    0.6507725 
