60 

C     0.3696047   -0.6380598   -4.4703991 
C     1.6342228   -0.3869301   -3.9394625 
C     1.7472047    1.0317566   -3.5881572 
C    -0.3696047    0.6380598   -4.4703991 
C     0.4772037    1.6562570   -3.8728295 
C    -1.6342228    0.3869301   -3.9394625 
C    -0.4772037   -1.6562570   -3.8728295 
C    -1.7472047   -1.0317566   -3.5881572 
C     0.0650200   -2.4823245   -2.8816537 
C     2.1678500   -1.1615076   -2.8503395 
C     1.4409884   -2.2700350   -2.4006137 
C     2.3408385    1.1183211   -2.3149849 
C     2.6767157   -0.2415705   -1.8504206 
C     1.8891349    2.0847907   -1.3576275 
C    -0.0650200    2.4823245   -2.8816537 
C     0.7140771    2.8188464   -1.7100179 
C    -2.1678500    1.1615076   -2.8503395 
C    -1.4409884    2.2700350   -2.4006137 
C    -2.3408385   -1.1183211   -2.3149849 
C    -2.6767157    0.2415705   -1.8504206 
C    -0.7140771   -2.8188464   -1.7100179 
C    -1.8891349   -2.0847907   -1.3576275 
C     1.5046881   -2.6309437   -1.0149774 
C     0.2063087   -3.1628573   -0.6517028 
C     2.7085990   -0.5549967   -0.4822702 
C     2.2043580   -1.8630523   -0.0483427 
C     2.2043580    1.8630523    0.0483427 
C     2.7085990    0.5549967    0.4822702 
C     1.5046881    2.6309437    1.0149774 
C    -0.2063087    3.1628573   -0.6517028 
C    -1.5046881    2.6309437   -1.0149774 
C     0.2063087    3.1628573    0.6517028 
C    -2.7085990    0.5549967   -0.4822702 
C    -2.2043580    1.8630523   -0.0483427 
C    -2.2043580   -1.8630523    0.0483427 
C    -2.7085990   -0.5549967    0.4822702 
C    -0.2063087   -3.1628573    0.6517028 
C    -1.5046881   -2.6309437    1.0149774 
C     1.8891349   -2.0847907    1.3576275 
C     0.7140771   -2.8188464    1.7100179 
C     2.6767157    0.2415705    1.8504206 
C     2.3408385   -1.1183211    2.3149849 
C     1.4409884    2.2700350    2.4006137 
C     2.1678500    1.1615076    2.8503395 
C    -0.7140771    2.8188464    1.7100179 
C    -1.8891349    2.0847907    1.3576275 
C     0.0650200    2.4823245    2.8816537 
C    -2.6767157   -0.2415705    1.8504206 
C    -2.3408385    1.1183211    2.3149849 
C    -1.4409884   -2.2700350    2.4006137 
C    -0.0650200   -2.4823245    2.8816537 
C    -2.1678500   -1.1615076    2.8503395 
C     1.7472047   -1.0317566    3.5881572 
C     1.6342228    0.3869301    3.9394625 
C     0.4772037   -1.6562570    3.8728295 
C    -0.4772037    1.6562570    3.8728295 
C    -1.7472047    1.0317566    3.5881572 
C    -1.6342228   -0.3869301    3.9394625 
C     0.3696047    0.6380598    4.4703991 
C    -0.3696047   -0.6380598    4.4703991 
