60 

C    -4.2153922   -1.0638211   -0.0975497 
C    -4.0003930    0.1020831    0.6968019 
C    -3.6734290    1.2163676   -0.1539598 
C    -3.6039507   -0.7366464   -1.3773805 
C    -3.2519589    0.6464819   -1.4511331 
C    -2.6305404   -1.7170592   -1.6998512 
C    -3.4434795   -2.1133863    0.4516546 
C    -2.5761206   -2.6311628   -0.5654211 
C    -3.0978145   -0.2060738    1.7842710 
C    -2.7258668   -1.5878622    1.6117936 
C    -2.1670680    0.7803213    2.2334451 
C    -2.9711992    2.2504109    0.3943461 
C    -2.3608434    2.1089340    1.7166414 
C    -2.0658751    3.0334401   -0.4358812 
C    -2.0211443    1.0814507   -2.0323715 
C    -1.5248865    2.4189427   -1.6308813 
C    -1.4180053   -1.3323054   -2.3410773 
C    -1.0792811    0.0758058   -2.5225193 
C    -0.3809841   -2.2886668   -2.2487542 
C    -1.3788568   -3.2874837   -0.2216620 
C    -0.4387188   -3.3779513   -1.2937500 
C    -1.4185729   -2.0336942    1.9304039 
C    -0.8680296   -3.1617755    1.1502372 
C    -0.8245595    0.3658044    2.6027206 
C    -0.5101004   -1.0662184    2.5514698 
C     0.2761612    1.3421028    2.5466780 
C    -1.3026099    3.0244922    1.7331743 
C    -1.2015730    3.7163572    0.4411275 
C     0.0054858    2.6860500    2.1383449 
C     0.1580446    3.9561168    0.1494522 
C     0.9433465    3.4309058    1.2709258 
C    -0.2210539    2.7964671   -1.9935660 
C     0.5936222    3.6837660   -1.1731460 
C     0.3287219    0.4294391   -2.6892546 
C     0.6918976    1.8077429   -2.5854191 
C     1.0141856   -1.9247761   -2.4179349 
C     1.3911119   -0.5547128   -2.5023181 
C     0.9018256   -3.7748389   -1.0325120 
C     1.8212923   -2.8619362   -1.7477626 
C     0.4801957   -3.5312800    1.3746478 
C     1.3444475   -3.9291463    0.2622916 
C     0.8569610   -1.4613173    2.6733295 
C     1.2875372   -2.7234922    2.2184056 
C     1.6540665    0.8814651    2.3499436 
C     1.9287379   -0.4987356    2.4445847 
C     2.2214270    2.9416368    1.0390091 
C     2.5787143    1.6489477    1.5845850 
C     1.9569541    3.3135536   -1.3703667 
C     2.0186406    2.1677608   -2.2894373 
C     2.7917873    3.0302907   -0.2892541 
C     2.6520237   -0.1796142   -1.8587494 
C     3.4110692    0.9618806    0.6016833 
C     2.9503105    1.2059072   -1.7819236 
C     3.4569665    1.7604672   -0.5581155 
C     2.8453147   -2.4472850   -0.8554749 
C     2.6335561   -3.1970330    0.3714244 
C     2.5990317   -2.5182981    1.5706160 
C     2.9453603   -1.1400284    1.6500898 
C     3.2038991   -1.0636984   -0.8190948 
C     3.4296113   -0.4550920    0.4924239 
