60 

C     0.5620733    4.5963040   -0.1362296 
C     0.4464994    4.0452729   -1.4849376 
C    -0.8973113    3.7169001   -1.6997552 
C    -0.6768427    4.3369146    0.5538683 
C    -1.6209461    3.9243534   -0.4156815 
C    -0.4056088    3.4615862    1.6983528 
C     1.5829479    3.8723734    0.5181302 
C     1.0440709    3.3027262    1.7372945 
C     1.4294277    2.9971619   -1.6353005 
C     2.2167835    2.9610299   -0.4082743 
C     1.1035258    1.7534162   -2.2614638 
C    -1.2663381    2.4406950   -2.1948887 
C    -0.2946651    1.4725510   -2.5915292 
C    -2.4126396    2.7973168   -0.1895024 
C    -2.3580658    1.9492307   -1.3886219 
C    -1.2220744    2.3314432    1.9770925 
C    -2.3614955    2.1094192    1.0820968 
C    -0.6300570    1.1178261    2.6108176 
C     1.5962517    2.1303777    2.1958246 
C     0.7778450    1.0827694    2.7630885 
C     2.8001659    1.7550326    0.0608423 
C     2.6599547    1.4731096    1.4578749 
C     2.0124569    0.6339276   -2.0315382 
C     2.9030956    0.6305190   -0.8639439 
C     1.6576394   -0.6004792   -2.6075262 
C    -0.7391013    0.0929560   -2.7200606 
C     0.2770709   -0.8524527   -2.9905868 
C    -2.7316911    0.5984594   -1.3552658 
C    -1.9895089   -0.3816474   -2.1324833 
C    -2.9777005    0.8663656    1.0968843 
C    -3.3844037    0.1958240   -0.1419111 
C    -1.3223696   -0.1703543    2.6188581 
C    -2.6336998   -0.1859891    2.0388057 
C    -0.5711450   -1.4449396    2.6627342 
C     1.5212401   -0.1529590    2.6944901 
C     2.7116104    0.1234617    1.9132962 
C     0.8847172   -1.4211151    2.6389114 
C     3.3369050   -0.6164221   -0.3483828 
C     3.2492111   -0.8585008    1.0873616 
C     2.2287854   -1.8676327   -2.1621287 
C     3.0380496   -1.8769967   -1.0101148 
C     0.0376345   -2.2412763   -2.8155713 
C     1.2407424   -2.8806432   -2.3176468 
C    -2.1553688   -1.8024585   -1.8035139 
C    -1.0992489   -2.7150291   -2.1303711 
C    -3.5724663   -1.1543833    0.1406545 
C    -3.2096731   -1.3832027    1.5479104 
C    -2.9704011   -2.1684841   -0.6642442 
C    -1.1923500   -2.6373598    2.1423300 
C    -2.5021810   -2.5766472    1.5939936 
C    -2.4716835   -3.1630771    0.2521448 
C     0.8579865   -3.7419008   -1.2484429 
C    -0.5981180   -3.7188602   -1.1675814 
C    -0.4379189   -3.5778228    1.3057782 
C    -1.2268072   -3.8055347    0.0761996 
C     1.6238122   -2.4883811    2.0016056 
C     2.8069424   -2.1922491    1.2767679 
C     2.7695305   -2.8695058   -0.0086821 
C     0.9315387   -3.5188972    1.2355647 
C     1.6233665   -3.7041219   -0.0533930 
