60 

C    -0.4723461   -4.0884366    0.5489200 
C     0.7340222   -3.9988579   -0.0944123 
C     0.4929121   -3.5632140   -1.4982955 
C    -1.5248411   -3.7754501   -0.4669552 
C    -0.8780554   -3.2615637   -1.6637416 
C    -2.5351243   -3.0982949    0.1602952 
C    -0.7392114   -3.2803009    1.7038728 
C    -2.1141310   -2.8292926    1.5504979 
C     0.2572223   -2.3779810    2.1937279 
C     1.8050317   -3.2203172    0.4210055 
C     1.6009720   -2.4008402    1.5833934 
C     1.5100673   -2.6797945   -1.8560134 
C     2.4706463   -2.6504359   -0.7347998 
C     1.1742716   -1.4576783   -2.5437721 
C    -1.2711250   -1.9748036   -2.1848461 
C    -0.2298458   -1.0756572   -2.6884630 
C    -3.0765762   -1.9072975   -0.4061377 
C    -2.5133818   -1.3907896   -1.6390831 
C    -2.5020761   -1.5330047    1.8323725 
C    -3.2613086   -0.9945796    0.6843955 
C    -0.2269302   -1.1118191    2.7896031 
C    -1.6212146   -0.6640292    2.5642789 
C     0.7089189   -0.1129922    3.1062912 
C     2.4874539   -1.2385213    1.7262182 
C     2.0854282   -0.1748031    2.6134582 
C     3.3028975   -1.5688758   -0.5980826 
C     3.3890796   -0.8780325    0.6814737 
C     2.1814014   -0.4417791   -2.4927192 
C     3.2908405   -0.5824227   -1.6257364 
C     1.8377950    0.9728718   -2.5134773 
C    -0.5359960    0.3498578   -2.8999505 
C     0.5245458    1.3871731   -2.7691683 
C    -2.7653865   -0.0383457   -1.8937784 
C    -1.8635715    0.7759022   -2.6685113 
C    -3.3832107    0.3909888    0.4792571 
C    -3.3833060    0.8397338   -0.8880680 
C    -1.9227732    0.7133752    2.4845999 
C    -2.8131761    1.2592157    1.4601194 
C     0.3404065    1.2935062    3.1526189 
C    -0.9258518    1.7115292    2.7643561 
C     2.5624379    1.1466101    2.4458277 
C     1.4654116    2.0531041    2.7041302 
C     3.6689381    0.5355667    0.3832064 
C     3.5642630    0.7049229   -1.0198130 
C     2.6896784    1.6757810   -1.5688060 
C     3.1823280    1.5521807    1.2278049 
C     1.3429222    2.9717276    1.6419943 
C     2.1337543    2.7016817   -0.7206881 
C     2.4171098    2.6507505    0.6804986 
C     0.1930865    2.7106942   -2.2792323 
C     0.9029321    3.2537982   -1.1480521 
C    -2.1607418    2.1541981   -2.3323533 
C    -3.0676282    2.1739737   -1.1933607 
C    -1.1669277    3.0978665   -2.1411616 
C    -2.3393144    2.5727072    1.1120757 
C    -1.0992299    2.8178151    1.8474854 
C     0.0411883    3.3964402    1.2061241 
C    -0.1086393    3.7389427   -0.1922012 
C    -2.4927325    3.0558599   -0.2071346 
C    -1.3633100    3.7114359   -0.8210881 
