60 

C     4.2582981   -2.0758483   -0.2210473 
C     4.6745425   -0.7451295    0.1561887 
C     4.2202358   -0.4831682    1.4685027 
C     3.3729018   -2.5645742    0.8204562 
C     3.3744955   -1.6266298    1.8741504 
C     2.0842908   -2.8966648    0.2506679 
C     3.4232906   -1.8892594   -1.3573277 
C     2.1434662   -2.5004929   -1.1453586 
C     4.2793310    0.1997359   -0.8883894 
C     3.4339951   -0.5260147   -1.8336261 
C     3.9014445    1.4962378   -0.5250751 
C     3.5039479    0.7176122    1.7717344 
C     3.4949758    1.7810676    0.8541892 
C     2.1518283   -1.1071804    2.3839349 
C     2.2384587    0.3378678    2.4065328 
C     0.8748208   -2.6369216    0.9459904 
C     0.8929390   -1.7019890    2.0517236 
C    -0.3444365   -2.7311541    0.1779536 
C     0.9903028   -2.0073038   -1.7799617 
C    -0.2464085   -2.4916399   -1.2430440 
C     2.2364861    0.0564839   -2.3796140 
C     1.0016611   -0.7153124   -2.4514449 
C     2.9670503    2.1783575   -1.3667282 
C     2.0850663    1.4750543   -2.2517608 
C     2.3305160    2.6454547    0.7952144 
C     2.1447659    3.0364926   -0.5692779 
C     1.0739384    1.1332411    2.3274377 
C     1.1540478    2.3860546    1.5809817 
C    -0.3087240   -0.9552028    2.3167342 
C    -0.2165092    0.4775145    2.5002082 
C    -1.6000619   -2.5023231    0.8376611 
C    -1.5861563   -1.5638992    1.9608476 
C    -2.7959092   -2.5880570    0.0322938 
C    -1.4105831   -2.1133712   -1.9332683 
C    -2.6584980   -2.3656558   -1.3660856 
C    -0.2834632   -0.0434561   -2.6424757 
C    -1.4576975   -0.8106834   -2.5623473 
C     0.7664161    2.1072397   -2.1962937 
C     0.8487658    3.1135596   -1.1519222 
C    -0.4291063    1.3949953   -2.3985123 
C    -0.0775073    2.9283664    1.1016971 
C    -0.2328881    3.2629893   -0.3176289 
C    -1.4256088    1.2516416    2.3327583 
C    -1.3282775    2.4563114    1.5544182 
C    -2.7750624   -0.8318507    2.2427693 
C    -2.6816521    0.5944341    2.3480442 
C    -4.0075800   -1.9256739    0.4259822 
C    -4.0374247   -1.1236045    1.5509645 
C    -3.5998313   -1.3095636   -1.7834369 
C    -2.8009873   -0.2576421   -2.3340862 
C    -4.5113046   -1.1039597   -0.7510000 
C    -1.6855479    1.8771179   -1.7828077 
C    -1.5260265    2.8142315   -0.7283325 
C    -2.3086392    2.6497006    0.4745225 
C    -2.9162813    1.0635933   -1.7863304 
C    -3.8241595    1.1591525    1.6090906 
C    -4.6672204    0.1450701    1.1863728 
C    -4.7610204    0.1978656   -0.2866185 
C    -3.4942675    1.9817581    0.4531028 
C    -3.9234388    1.2750247   -0.7593239 
