60 

C     2.2792861    3.8070250    0.2576973 
C     3.1262781    2.7120981    0.0384590 
C     2.7218848    2.0836037   -1.2073638 
C     1.3477825    3.9222562   -0.8440819 
C     1.5524768    2.7924218   -1.7105719 
C     0.0510758    4.1139413   -0.3083124 
C     1.4756105    3.5115746    1.4286788 
C     0.1139361    3.7356541    1.1322948 
C     3.0687474    1.8649166    1.2136028 
C     1.8925885    2.2546548    1.9921715 
C     3.3366393    0.5443843    1.0370382 
C     2.8405718    0.6911185   -1.3727621 
C     3.4926823   -0.0195878   -0.3028988 
C     1.8197534   -0.0404270   -2.1405883 
C     0.4281919    2.0439660   -2.2387913 
C     0.5200685    0.6008606   -2.4241367 
C    -1.0338590    3.6871138   -1.0621642 
C    -0.8611439    2.6248861   -2.0578187 
C    -2.2289129    3.4283727   -0.3718942 
C    -0.8849969    2.8704698    1.6664792 
C    -2.1665304    2.9944934    1.0208340 
C     0.9385420    1.2567637    2.3701948 
C    -0.4906727    1.5783779    2.2742128 
C     2.6561920   -0.4576843    1.8169967 
C     1.3765933   -0.1543210    2.3722955 
C     3.3766192   -1.4228635   -0.1818588 
C     2.9316668   -1.7194791    1.1879293 
C     1.9115740   -1.4373349   -2.1388622 
C     2.8056913   -2.1525686   -1.2361386 
C     0.7346006   -2.2798302   -2.3364079 
C    -0.6890549   -0.2149214   -2.4500543 
C    -0.5785399   -1.6738419   -2.3726058 
C    -2.0564363    1.8131465   -2.0336762 
C    -2.9783444    2.4264687   -1.0984122 
C    -1.9875451    0.3993229   -2.1453501 
C    -3.1085016    1.9675696    1.1641534 
C    -3.6675535    1.6385648   -0.1761356 
C    -1.4578019    0.4886563    2.3148675 
C    -2.7799207    0.7469998    1.7930469 
C     0.4085405   -1.2485833    2.4390912 
C    -1.0271650   -0.9235889    2.3967830 
C     2.1116234   -2.8045045    1.4339362 
C     0.8375401   -2.5688376    2.0895893 
C     2.2067934   -3.4126866   -0.9513241 
C     0.9611960   -3.5299645   -1.7180899 
C     1.9055064   -3.7667148    0.3756625 
C    -0.0954442   -3.5460003    1.5289405 
C    -0.0504454   -4.1117748   -0.8845846 
C     0.5283520   -4.2249008    0.4397759 
C    -1.6420890   -2.4506449   -1.8288642 
C    -1.3544341   -3.6253055   -1.0079895 
C    -2.9918955   -0.3882536   -1.4109355 
C    -3.6991607    0.2541129   -0.3127788 
C    -3.4497204   -0.2896768    1.0264205 
C    -2.7919862   -1.7719838   -1.2511883 
C    -1.9284486   -1.9486646    1.9709988 
C    -1.4492086   -3.2109877    1.4377552 
C    -2.1253819   -3.4467513    0.1904881 
C    -3.0920703   -1.5947836    1.1688010 
C    -3.0913410   -2.4163269   -0.0025542 
