60 

C     2.5632340    0.3631219   -2.7904341 
C     2.9855336   -0.5373982   -1.7723670 
C     3.3558759    0.2783677   -0.6244387 
C     2.4125163    1.6668315   -2.1880551 
C     2.8547182    1.6259148   -0.8279613 
C     1.1733167    2.2247711   -2.5747283 
C     1.4227576    0.1163952   -3.6084507 
C     0.5730802    1.3094885   -3.5578265 
C     0.8475103   -1.1510462   -3.5578265 
C     2.3141039   -1.7894097   -1.5775110 
C     1.3400500   -2.1285076   -2.5747283 
C     2.1477414   -2.3039217   -0.1988257 
C     3.3558759   -0.2783677    0.6244387 
C     2.8547182   -1.6259148    0.8279613 
C     2.9855336    0.5373982    1.7723670 
C     2.1477414    2.3039217    0.1988257 
C     2.3141039    1.7894097    1.5775110 
C     0.3926223    2.8987776   -1.5775110 
C     0.9213840    3.0119595   -0.1988257 
C    -1.0273663    2.8542470   -1.7723670 
C    -0.8121800    1.1739467   -3.6084507 
C    -1.5960897    2.0382648   -2.7904341 
C    -0.6105777   -1.2903418   -3.6084507 
C    -1.4205904   -0.1584423   -3.5578265 
C     0.2372602   -2.9227161   -2.1880551 
C    -0.9671442   -2.4013867   -2.7904341 
C     0.9213840   -3.0119595    0.1988257 
C    -0.0192756   -3.2852158   -0.8279613 
C     0.3926223   -2.8987776    1.5775110 
C     2.4125163   -1.6668315    2.1880551 
C     2.5632340   -0.3631219    2.7904341 
C     1.1733167   -2.2247711    2.5747283 
C     1.4227576   -0.1163952    3.6084507 
C     0.5730802   -1.3094885    3.5578265 
C     1.3400500    2.1285076    2.5747283 
C     0.8475103    1.1510462    3.5578265 
C    -0.0192756    3.2852158    0.8279613 
C     0.2372602    2.9227161    2.1880551 
C    -1.9190114    2.7670899   -0.6244387 
C    -1.4368645    3.0454576    0.6244387 
C    -2.6497765    1.2558847   -2.1880551 
C    -2.5133666   -0.0962635   -2.5747283 
C    -2.8354426    1.6593011   -0.8279613 
C    -1.9581673   -2.3168489   -1.7723670 
C    -1.4368645   -3.0454576   -0.6244387 
C    -2.7067262   -1.1093679   -1.5775110 
C    -1.0273663   -2.8542470    1.7723670 
C    -1.9190114   -2.7670899    0.6244387 
C    -0.8121800   -1.1739467    3.6084507 
C    -1.5960897   -2.0382648    2.7904341 
C    -0.6105777    1.2903418    3.6084507 
C    -0.9671442    2.4013867    2.7904341 
C    -1.9581673    2.3168489    1.7723670 
C    -1.4205904    0.1584423    3.5578265 
C    -3.0691254    0.7080378    0.1988257 
C    -3.0691254   -0.7080378   -0.1988257 
C    -2.8354426   -1.6593011    0.8279613 
C    -2.6497765   -1.2558847    2.1880551 
C    -2.7067262    1.1093679    1.5775110 
C    -2.5133666    0.0962635    2.5747283 
