60 

C     0.1992898   -4.1879584    0.4054522 
C     0.6784754   -3.7170695    1.6301315 
C     2.0029126   -3.1392162    1.4291642 
C     1.1971332   -3.8530565   -0.6257867 
C     2.3123918   -3.2309287    0.0174682 
C     0.5241049   -3.2309854   -1.7020830 
C    -1.0968627   -3.8261626   -0.0762781 
C    -0.9143129   -3.3173205   -1.4362672 
C    -1.9689517   -3.1306984    0.7830417 
C    -0.1101254   -2.7855351    2.3964730 
C    -1.4429551   -2.5636950    2.0299993 
C     2.0307248   -1.8819264    2.0600135 
C     0.7226965   -1.6441751    2.6951358 
C     2.7480114   -0.7776354    1.4916095 
C     2.8796057   -2.1197486   -0.6033222 
C     3.2899086   -0.9729181    0.1814628 
C     1.0736068   -2.0512596   -2.3359439 
C     2.3403502   -1.6084491   -1.8532112 
C     0.1571371   -1.0372324   -2.8819923 
C    -1.7563736   -2.3335585   -1.9216299 
C    -1.2451001   -1.2101319   -2.6931970 
C    -2.9027575   -2.1772211    0.2421918 
C    -2.8589012   -1.8397519   -1.1169611 
C    -2.0180055   -1.2602631    2.2167684 
C    -3.0580022   -1.0910541    1.2094464 
C     0.2045803   -0.3381779    2.8112308 
C    -1.2411614   -0.1429445    2.6319802 
C     2.4095298    0.5643857    1.9310705 
C     1.1314447    0.7855429    2.6342790 
C     2.9592097    1.6471584    1.1702471 
C     3.3987333    0.1487118   -0.7141323 
C     2.7323384   -0.2199864   -1.9547951 
C     3.3079850    1.4304970   -0.2241681 
C     0.6076525    0.3130000   -3.0251290 
C     1.9259291    0.7126059   -2.5955880 
C    -0.2604518    1.4403881   -2.8329265 
C    -2.1278941   -0.0844639   -2.5001475 
C    -3.1415046   -0.4845942   -1.5422538 
C    -1.6372658    1.2663432   -2.5350300 
C    -3.4731656    0.1567079    0.8107378 
C    -3.6095860    0.4518869   -0.6169502 
C    -1.7554320    1.1920138    2.3184783 
C    -2.9090325    1.3362601    1.4565773 
C     0.5663121    2.0879858    2.6216183 
C    -0.8532829    2.2763100    2.3576408 
C     2.3841091    2.9435546    1.2343770 
C     1.2474083    3.1784636    1.9857048 
C     2.6465250    2.4894912   -1.0175072 
C     1.8687913    2.0862886   -2.1316482 
C     0.5126114    2.5326026   -2.2464224 
C     2.1490338    3.4588411   -0.1327744 
C    -0.9867737    3.4225022    1.4309427 
C     0.2914089    3.9082469    1.1510403 
C    -0.0661339    3.4360137   -1.2760846 
C     0.7977991    3.9199365   -0.2030935 
C    -2.2548210    2.2488608   -1.6807666 
C    -3.2510672    1.8165905   -0.7781695 
C    -2.9756432    2.4088289    0.5268846 
C    -1.4484381    3.2606553   -0.9924356 
C    -1.9337491    3.3374450    0.3855271 
