60 

C    -1.8668065    3.9713882    0.5141591 
C    -2.2040098    3.0770507    1.5674963 
C    -0.9759887    2.6660273    2.2066155 
C    -0.4570744    4.1815879    0.4954973 
C     0.1193915    3.3927640    1.5421496 
C     0.0199796    3.9667958   -0.8476888 
C    -2.2220601    3.3375329   -0.7335749 
C    -1.0559469    3.2806117   -1.5733531 
C    -3.0393443    2.0535255    1.0121133 
C    -2.9687669    2.1614220   -0.4713083 
C    -2.9898220    0.8036957    1.5785256 
C    -0.7850727    1.3108669    2.6054103 
C    -1.9085300    0.4261314    2.4627635 
C     0.5474906    0.7093164    2.6106315 
C     1.3831136    2.7649793    1.3705321 
C     1.6513026    1.4956338    2.0699026 
C     1.3269642    3.5353532   -1.0064638 
C     2.0775933    3.0270037    0.1377937 
C     1.6174146    2.6514992   -2.0952710 
C    -0.7682628    2.0755425   -2.2960857 
C     0.6117182    1.8443938   -2.6453439 
C    -2.7540933    0.9781331   -1.2252299 
C    -1.6335180    0.9185455   -2.1643351 
C    -3.3239059   -0.3510859    0.7843709 
C    -3.2415349   -0.2722615   -0.6368330 
C    -1.7575032   -0.9946755    2.3511980 
C    -2.7861612   -1.5063068    1.4561268 
C     0.6655852   -0.7553803    2.7092576 
C    -0.4927566   -1.6248172    2.4499685 
C     1.9559480   -1.3352464    2.5264794 
C     2.8566433    0.8125054    1.7242802 
C     3.0234645   -0.5338949    2.0506697 
C     3.0479822    2.0682139   -0.3744718 
C     2.7421957    1.7991415   -1.7410466 
C     3.4730834    1.0132240    0.4047382 
C     1.1713088    0.4880112   -2.7444482 
C     2.5195746    0.4781012   -2.1807804 
C    -1.1090965   -0.3948279   -2.5437780 
C     0.3555364   -0.6269208   -2.6853495 
C    -2.9994139   -1.4856575   -1.3234860 
C    -1.9128173   -1.5276890   -2.3286943 
C    -2.6340507   -2.6982061    0.7672055 
C    -2.9861939   -2.7236009   -0.6260182 
C    -0.3395977   -2.9203458    1.7593703 
C    -1.3892496   -3.4508733    0.9516615 
C     2.0809938   -2.6073449    1.8448437 
C     0.9976190   -3.3170443    1.3738640 
C     3.6526820   -1.2177626    0.8901260 
C     3.6946639   -0.2940395   -0.1902277 
C     3.0040697   -0.6297426   -1.4203406 
C     3.0810987   -2.4544310    0.7528535 
C     0.9801612   -1.9039849   -2.2509968 
C     1.2886684   -3.6393758   -0.0481152 
C     2.2638821   -1.8836187   -1.5151962 
C     2.4225032   -2.8408567   -0.4576533 
C    -1.3128047   -2.8197620   -2.2611556 
C    -2.0141971   -3.5763970   -1.2701644 
C    -1.0678324   -4.0434086   -0.3317868 
C     0.1121923   -2.9942013   -2.0762304 
C     0.2515877   -3.8652379   -0.9051768 
