60 

C     4.2784160    0.6717376   -1.1127320 
C     4.4212067   -0.5954857   -0.5521996 
C     3.5749564   -1.5650612   -1.2999217 
C     3.4964756    0.4884547   -2.3486456 
C     2.9516452   -0.8656806   -2.3629729 
C     2.6234627    1.5494282   -2.4821584 
C     3.6145026    1.7149999   -0.3402357 
C     2.6787658    2.3204833   -1.2302621 
C     3.1692874    1.4800362    1.0123797 
C     4.1850144   -0.7939059    0.8127231 
C     3.6117626    0.2504412    1.6280194 
C     2.8373358   -2.3300096   -0.3402805 
C     3.3322119   -1.9625424    0.9622330 
C     1.4416522   -2.5505595   -0.5221905 
C     1.5575156   -1.0691219   -2.5968452 
C     0.8884668   -2.0880819   -1.7850424 
C     1.2573280    1.3606594   -2.8156893 
C     0.7193998    0.0548923   -3.0163546 
C     1.3583249    2.6808236   -0.8877752 
C     0.4844256    2.2356650   -1.9640405 
C     1.8398700    2.0459767    1.4372837 
C     0.8965565    2.6234898    0.4536216 
C     1.2645559    1.5527369    2.6200416 
C     2.7320061   -0.4208817    2.5476834 
C     2.4376811   -1.7585565    2.0200822 
C     1.7198863    0.2725272    3.1668620 
C     0.5435904   -2.6279221    0.6459657 
C     1.0732251   -2.2141212    1.9330832 
C    -0.8965565   -2.6234898    0.4536216 
C    -0.4844256   -2.2356650   -1.9640405 
C    -1.3583249   -2.6808236   -0.8877752 
C    -0.7193998   -0.0548923   -3.0163546 
C    -1.2573280   -1.3606594   -2.8156893 
C    -0.8884668    2.0880819   -1.7850424 
C    -1.5575156    1.0691219   -2.5968452 
C    -0.5435904    2.6279221    0.6459657 
C    -1.4416522    2.5505595   -0.5221905 
C    -0.1672608    1.6462657    2.8725320 
C    -1.0732251    2.2141212    1.9330832 
C     0.5620532   -0.4480272    3.5448355 
C     0.1672608   -1.6462657    2.8725320 
C    -0.5620532    0.4480272    3.5448355 
C    -1.8398700   -2.0459767    1.4372837 
C    -1.2645559   -1.5527369    2.6200416 
C    -1.7198863   -0.2725272    3.1668620 
C    -3.1692874   -1.4800362    1.0123797 
C    -2.6787658   -2.3204833   -1.2302621 
C    -2.6234627   -1.5494282   -2.4821584 
C    -3.6145026   -1.7149999   -0.3402357 
C    -2.9516452    0.8656806   -2.3629729 
C    -3.4964756   -0.4884547   -2.3486456 
C    -4.2784160   -0.6717376   -1.1127320 
C    -2.8373358    2.3300096   -0.3402805 
C    -3.5749564    1.5650612   -1.2999217 
C    -4.4212067    0.5954857   -0.5521996 
C    -2.4376811    1.7585565    2.0200822 
C    -2.7320061    0.4208817    2.5476834 
C    -3.6117626   -0.2504412    1.6280194 
C    -3.3322119    1.9625424    0.9622330 
C    -4.1850144    0.7939059    0.8127231 
