60 

C     1.2604079   -4.2504996    0.1042965 
C     2.3225836   -3.4828353    0.5296565 
C     2.8117903   -2.6934231   -0.6076726 
C     1.0398980   -3.9125420   -1.3379191 
C     1.8736132   -2.7928192   -1.6880580 
C    -0.3125753   -3.8389919   -1.5466309 
C    -0.0164957   -4.1750981    0.7775362 
C    -1.0070608   -4.0897017   -0.2594594 
C    -0.1551102   -3.2863051    1.8825660 
C     2.2035069   -2.5612863    1.6524897 
C     0.9612286   -2.4734834    2.3174697 
C     3.1700657   -1.4434098   -0.1261073 
C     2.8693429   -1.3483776    1.3144644 
C     2.9848320   -0.3142230   -0.9567674 
C     1.2817464   -1.5840417   -2.2429059 
C     1.9556770   -0.3263282   -1.9880482 
C    -0.9270104   -2.7081434   -2.1666065 
C    -0.1556143   -1.5359851   -2.4976617 
C    -2.1230313   -3.2526282   -0.1944788 
C    -2.1882421   -2.5390196   -1.4854899 
C    -1.3499419   -2.4610969    1.9898856 
C    -2.3893896   -2.4921738    1.0083952 
C     0.4483257   -1.1607322    2.6948117 
C    -0.9839585   -1.1938631    2.5738024 
C     2.4588966   -0.0838630    1.8216161 
C     1.1644123    0.0508707    2.4949589 
C     3.3025163    0.8913762   -0.3032318 
C     2.9506366    1.0348769    1.1299085 
C     3.0986221    2.0973579   -0.9405077 
C     1.3364604    0.9612804   -2.3140047 
C     2.0651679    2.1576001   -1.9586525 
C    -0.8518427   -0.2264225   -2.5224631 
C    -0.1049397    1.0386961   -2.4618739 
C    -2.8693059   -1.3574549   -1.5879648 
C    -2.2332761   -0.1962988   -2.2021643 
C    -3.1910542   -1.3209122    0.8778216 
C    -3.5982328   -0.8913522   -0.4500667 
C    -1.7202562    0.0034718    2.3746613 
C    -2.9358498   -0.1258419    1.6305120 
C     0.4500968    1.3344948    2.4421268 
C    -1.0041626    1.2900763    2.4271087 
C     2.4304256    2.3444333    1.3020845 
C     2.7397465    3.0704957    0.0770540 
C     1.1611340    2.5440302    1.9579190 
C     1.3778044    3.3860686   -1.7686280 
C     1.8525364    3.9865071   -0.4802588 
C    -0.8036032    2.2885106   -2.1010568 
C    -0.0286911    3.4592947   -1.7818715 
C    -2.8295404    0.9731979   -1.5903795 
C    -3.6639324    0.5166737   -0.5056132 
C    -3.3840232    1.0045479    0.8138609 
C    -2.1278666    2.1881883   -1.4882177 
C    -1.6948875    2.4349616    1.9063678 
C    -2.7717207    2.2126540    0.9295190 
C    -2.3879382    2.9508311   -0.2756085 
C     0.4021481    3.6965111    1.5182977 
C     0.7488982    4.3806631    0.2596752 
C    -0.4067825    4.2893974   -0.6273201 
C    -1.0081548    3.5852587    1.5058946 
C    -1.4980299    3.9468272    0.1429290 
