60 

C    -1.3994769   -4.1699852    0.6246723 
C    -0.1105848   -4.2916777    0.0298201 
C     0.8768772   -3.7150761    0.9091728 
C    -1.2830298   -3.3807322    1.7963608 
C     0.1253727   -3.1054399    2.0031722 
C    -2.1866782   -2.2555017    1.7189784 
C    -2.2520156   -3.4439900   -0.2931838 
C    -2.8728825   -2.3746474    0.4296875 
C    -0.1998173   -3.7599653   -1.3143259 
C    -1.5313793   -3.1442120   -1.4864663 
C     0.8920078   -3.1280940   -1.8622395 
C     2.0187444   -3.0569294    0.3687779 
C     2.1077863   -2.9366723   -1.0732079 
C     2.5573799   -1.9753954    1.1339383 
C     0.5173528   -1.8766632    2.5691225 
C     1.8481139   -1.4461822    2.2613352 
C    -1.8426561   -0.9789792    2.2343948 
C    -0.5110697   -0.8385359    2.8446102 
C    -2.4864500    0.2131333    1.6634388 
C    -3.1736685   -1.2220326   -0.2561584 
C    -3.1818891    0.0447685    0.4295695 
C    -1.6643584   -1.8508901   -2.1178840 
C    -2.6652388   -0.9913039   -1.5912045 
C     0.7254615   -1.9361839   -2.7149011 
C    -0.4972449   -1.2080803   -2.7458837 
C     2.7867668   -1.8363811   -1.6400037 
C     1.9635179   -1.2513261   -2.6683630 
C     3.2432983   -0.8356448    0.5208367 
C     3.3144987   -0.7498881   -0.8699807 
C     2.2338233   -0.0689367    2.4453765 
C     3.0286093    0.3523549    1.3190852 
C    -0.0674426    0.4484294    3.1494932 
C     1.3424369    0.8131142    3.0359718 
C    -1.9903514    1.5583288    1.9771312 
C    -0.8378635    1.6525529    2.8203176 
C    -2.2212605    2.6474226    1.0752905 
C    -3.1185629    1.0563123   -0.5764768 
C    -2.6258228    0.4272306   -1.7889660 
C    -2.7785171    2.3694765   -0.2511349 
C    -0.4344333    0.2650796   -2.8913676 
C    -1.5939026    1.0719590   -2.5272431 
C     2.0307585    0.1577097   -2.5830098 
C     2.9282204    0.5075043   -1.4972306 
C     0.8678766    0.9212465   -2.8408826 
C     2.8298270    1.6378914    0.7283274 
C     2.7301926    1.6940402   -0.7406652 
C     1.4135044    2.1815318    2.6691195 
C     0.0749277    2.7269900    2.6503823 
C     2.0859302    2.6093391    1.4952155 
C    -1.2539516    3.7140496    0.8886280 
C    -0.0297806    3.6700791    1.5861827 
C     1.2427087    3.6197225    0.8552354 
C    -2.1638275    3.1670333   -1.2302173 
C    -1.4593972    2.5045436   -2.3119958 
C    -1.2314080    4.0379506   -0.5232890 
C     0.9698502    2.2843231   -2.4096912 
C     1.8829937    2.6697991   -1.3321970 
C     1.2160881    3.6949730   -0.5439704 
C    -0.1709045    3.0951970   -2.3467860 
C    -0.0190600    4.0152605   -1.2047195 
