60 

C     0.5665949   -4.0992317   -0.9248181 
C    -0.8013124   -3.9459377   -0.9527770 
C    -1.3021784   -3.8710217    0.4385793 
C     0.9678680   -4.1166653    0.5063000 
C    -0.1735918   -3.7491567    1.3089756 
C     2.1305271   -3.3964919    0.6063119 
C     1.4107551   -3.1616074   -1.6168886 
C     2.5090442   -2.8953203   -0.7376277 
C     0.8395663   -2.0509576   -2.3308475 
C    -1.4262766   -2.9058048   -1.7058738 
C    -0.6267784   -1.9436954   -2.4148691 
C    -2.3659949   -2.9640217    0.4566504 
C    -2.5459262   -2.4373742   -0.9075056 
C    -2.4383151   -2.0447300    1.5215006 
C    -0.0860663   -2.5927009    2.1902311 
C    -1.2785592   -1.8340741    2.3603865 
C     2.2855733   -2.3131172    1.5311684 
C     1.1786179   -1.8467201    2.3113512 
C     3.0713069   -1.6300461   -0.5902991 
C     3.1329195   -1.3544483    0.8512140 
C     1.6368848   -0.8176878   -2.4048544 
C     2.7464105   -0.5637914   -1.4883552 
C     1.0063361    0.3220583   -2.9683795 
C    -1.2453534   -0.6323828   -2.6625242 
C    -0.4161882    0.4406959   -3.0473965 
C    -3.0630480   -1.1693870   -1.0770138 
C    -2.4844219   -0.2739431   -2.0356521 
C    -3.1128399   -0.7836786    1.3429134 
C    -3.5059891   -0.3743191    0.0636207 
C    -1.2754565   -0.4291434    2.7417941 
C    -2.4866927    0.1828945    2.2260371 
C     1.1717367   -0.4169837    2.6878170 
C    -0.0843734    0.3184012    2.8975717 
C     3.2099913   -0.0758054    1.2959265 
C     2.3139843    0.3632840    2.3488771 
C     3.0565396    0.7972489   -1.0379261 
C     3.3760140    1.0147666    0.3422881 
C     1.5107312    1.6387693   -2.7229826 
C     2.4370943    1.9112787   -1.7082829 
C    -0.7777144    1.8503725   -2.7805629 
C     0.4154463    2.5898678   -2.6794815 
C    -2.7618751    1.0860982   -1.6060934 
C    -3.4011252    1.0138085   -0.3099694 
C    -1.8980328    2.1722248   -1.9457983 
C    -2.5415698    1.5305463    1.9371861 
C    -3.1041622    1.9848779    0.6629950 
C    -0.1691502    1.7862695    2.6994830 
C    -1.4030968    2.3718391    2.2626842 
C     2.2193313    1.7725262    2.1899210 
C     2.9242990    2.1858094    1.0016299 
C     1.0120340    2.5019744    2.3114152 
C     1.9515297    3.1141050   -1.0022441 
C     0.6554015    3.4824490   -1.5909399 
C     2.1468237    3.2060204    0.3718044 
C     1.0072554    3.5022053    1.2483196 
C    -1.7290594    3.2450304   -0.9870223 
C    -2.3714949    3.1332622    0.2826160 
C    -1.3969348    3.4352055    1.3126040 
C    -0.4109039    3.8402939   -0.7619875 
C    -0.2061351    3.8960619    0.6888002 
