60 

C     3.8482646   -1.8557480   -0.1367694 
C     2.8983522   -2.8440925   -0.4942803 
C     2.1540146   -2.3751160   -1.6321825 
C     3.7448272   -0.7353101   -1.0331170 
C     2.6666392   -1.0230561   -1.9394769 
C     3.6376005    0.4574557   -0.2645878 
C     3.4891295   -1.3745089    1.1635036 
C     3.4309388    0.0437397    1.1291334 
C     2.1530317   -3.1872173    0.6998860 
C     2.3715712   -2.1182350    1.6791285 
C     0.8942957   -3.6674228    0.5340739 
C     0.7769562   -2.6883189   -1.7628676 
C     0.2694460   -3.6417032   -0.8016792 
C    -0.1528085   -1.7077944   -2.3198951 
C     1.7850647   -0.0155348   -2.3794293 
C     0.4059944   -0.4034068   -2.7161337 
C     2.9277382    1.5598978   -0.7870756 
C     2.0891703    1.3729781   -1.9688843 
C     2.5469170    2.5333048    0.1714611 
C     2.4659947    0.7132343    1.9007983 
C     2.3348291    2.0970434    1.5503000 
C     1.2449403   -1.4525731    2.2660959 
C     1.3173213   -0.0017346    2.4607113 
C    -0.1453854   -3.3494535    1.4912131 
C    -0.0665583   -2.1195706    2.2286142 
C    -1.0972193   -3.7761798   -0.6141525 
C    -1.3610930   -3.7406800    0.8557210 
C    -1.5868855   -1.8269323   -2.0541960 
C    -2.0527309   -2.9497174   -1.2522522 
C    -2.4253859   -0.6070328   -2.0501829 
C    -0.4985188    0.6482745   -2.9678175 
C    -1.8690677    0.5822776   -2.5458882 
C     1.1368342    2.3823532   -2.2314152 
C    -0.0821416    2.0167560   -2.8407043 
C     1.5840462    3.5705240   -0.1105548 
C     0.8568014    3.4955008   -1.3035110 
C     1.3246831    2.8644070    2.1207905 
C     0.8998346    3.8678332    1.1304916 
C     0.1006740    0.7583822    2.6957851 
C     0.1664882    2.2106589    2.6527644 
C    -1.3022651   -1.3377737    2.3860437 
C    -1.2051224    0.1163081    2.5032748 
C    -2.5358142   -3.0902076    1.0783548 
C    -3.0939496   -2.7358297   -0.2675551 
C    -2.5445329   -1.8943348    1.8887373 
C    -3.4527569   -0.4419298   -1.0349492 
C    -3.7089767   -1.5196625   -0.1363410 
C    -3.4762647   -1.0290769    1.2336777 
C    -2.2752952    0.9440269    1.9501702 
C    -3.4399057    0.7593886   -0.2485380 
C    -3.2866825    0.3402350    1.1596035 
C    -2.2155236    1.9037991   -1.9989216 
C    -1.1525371    2.7870253   -2.2698584 
C    -0.6010772    3.6737907   -1.2782930 
C    -2.8454624    1.9496254   -0.7082760 
C    -0.4768526    3.9419700    1.1698647 
C    -0.9498529    2.9801014    2.1731744 
C    -2.0448783    2.3188037    1.6318899 
C    -1.2665492    3.7862851   -0.0323931 
C    -2.3103053    2.8341734    0.2769160 
