60 

C    -1.9323053   -3.9688926    0.1060219 
C    -1.0829351   -3.9578096   -1.0193468 
C     0.3068311   -3.9926330   -0.5865062 
C    -1.0954873   -3.8458491    1.2835795 
C     0.2770525   -4.0162423    0.8786891 
C    -1.4585410   -2.6577897    1.9610297 
C    -2.7935704   -2.8253273    0.0279491 
C    -2.5770276   -2.0500624    1.2017684 
C    -1.5379053   -2.9133643   -1.9149535 
C    -2.6120372   -2.1747072   -1.2475727 
C    -0.5930447   -2.1737530   -2.6006792 
C     1.2830852   -3.1913291   -1.2639244 
C     0.8394012   -2.3339567   -2.3290353 
C     2.4078844   -2.6976788   -0.5073420 
C     1.2532562   -3.3193185    1.5878803 
C     2.4123337   -2.8774318    0.8920987 
C    -0.4634094   -1.7866918    2.5472884 
C     0.8829117   -2.2149629    2.4804968 
C    -0.7590154   -0.3593908    2.7032290 
C    -2.7216321   -0.6654444    1.1639434 
C    -2.0242241    0.1367187    2.1806669 
C    -2.7006002   -0.7684282   -1.3390407 
C    -3.0295519   -0.0405925   -0.1243376 
C    -0.8443136   -0.7948037   -2.9347728 
C    -1.8924185   -0.0554110   -2.3405609 
C     1.4642004   -1.0818856   -2.5963530 
C     0.4549793   -0.1802469   -3.1252680 
C     3.0135490   -1.3826839   -0.7705375 
C     2.5431507   -0.5392283   -1.7973143 
C     2.9270877   -1.6700804    1.5193649 
C     1.9563566   -1.2229735    2.4435198 
C     3.4013024   -0.7996212    0.5112214 
C     0.3289753    0.5909918    2.8818586 
C     1.6920955    0.1721395    2.5893819 
C     0.0435652    1.9959275    2.7713936 
C    -2.2793757    1.5244053    2.1600908 
C    -1.2719912    2.4455357    2.5744944 
C    -3.0560488    1.3670380   -0.1728329 
C    -2.9300394    2.1147945    1.0128062 
C    -1.7537161    1.4071735   -2.2875818 
C    -2.4433971    2.1192704   -1.2780770 
C     0.6088257    1.1753283   -3.0671894 
C    -0.5501378    2.0173533   -2.8049626 
C     2.6599546    0.9293999   -1.6549536 
C     1.7927321    1.7660962   -2.4349620 
C     3.2789367    0.5683491    0.7200095 
C     2.5455152    1.0662858    1.8593178 
C     3.0669553    1.4685393   -0.3925764 
C     0.9390883    2.9057605    2.0431781 
C     2.1161655    2.4015639    1.5211895 
C     2.4832201    2.6809913    0.1381549 
C    -1.2541302    3.5787562    1.6446957 
C    -2.2518662    3.3608908    0.6901651 
C    -1.9262675    3.3575050   -0.7113987 
C     0.1077838    3.8238487    1.2584996 
C    -0.0457231    3.2000788   -2.2231177 
C     1.3909764    3.0359948   -1.9772624 
C     1.6467497    3.4835189   -0.6513472 
C    -0.6509527    3.8289209   -1.1044559 
C     0.4067432    4.0354138   -0.0957205 
