60 

C     4.3315573    0.3305966    1.2458490 
C     4.5667564    0.5399212   -0.1071271 
C     4.2375450   -0.7185465   -0.8522873 
C     3.9589525   -1.1122654    1.3872175 
C     3.6917938   -1.6469726    0.0738545 
C     3.0117600   -1.2213988    2.3637856 
C     3.3367925    1.0908589    1.9448709 
C     2.6998983    0.1380178    2.8411843 
C     2.4919427    2.0315257    1.2210905 
C     3.9415000    1.5987232   -0.7773306 
C     2.8643747    2.3028982   -0.1432579 
C     3.5579874   -0.3546267   -2.0425301 
C     3.4283219    1.0817093   -2.0537846 
C     2.4427272   -1.1358161   -2.4242679 
C     2.3855310   -2.2859151   -0.1909697 
C     1.8988778   -2.1405247   -1.5068062 
C     1.7572421   -1.9102866    2.1679683 
C     1.3835184   -2.4445618    0.9002571 
C     1.3633436    0.1909647    3.1216015 
C     0.7806684   -1.1617210    2.8797312 
C     1.0646369    2.1336428    1.5746285 
C     0.5807484    1.3151069    2.6755233 
C     0.0516785    2.5578100    0.6111174 
C     1.8137383    2.4460144   -1.1323277 
C     2.1772343    1.6522889   -2.3111093 
C     0.4630578    2.6221883   -0.7857196 
C     1.3313862   -0.5308667   -3.0660794 
C     1.1575500    0.8931914   -2.9799571 
C     0.4978119   -2.2915185   -1.7994964 
C     0.1593194   -1.3713244   -2.8356289 
C    -0.0516785   -2.5578100    0.6111174 
C    -0.4630578   -2.6221883   -0.7857196 
C    -0.5807484   -1.3151069    2.6755233 
C    -1.0646369   -2.1336428    1.5746285 
C    -0.7806684    1.1617210    2.8797312 
C    -1.3633436   -0.1909647    3.1216015 
C    -1.3835184    2.4445618    0.9002571 
C    -1.7572421    1.9102866    2.1679683 
C    -2.3855310    2.2859151   -0.1909697 
C    -0.4978119    2.2915185   -1.7994964 
C    -0.1593194    1.3713244   -2.8356289 
C    -1.8988778    2.1405247   -1.5068062 
C    -1.1575500   -0.8931914   -2.9799571 
C    -1.3313862    0.5308667   -3.0660794 
C    -2.4427272    1.1358161   -2.4242679 
C    -1.8137383   -2.4460144   -1.1323277 
C    -2.1772343   -1.6522889   -2.3111093 
C    -2.4919427   -2.0315257    1.2210905 
C    -2.8643747   -2.3028982   -0.1432579 
C    -2.6998983   -0.1380178    2.8411843 
C    -3.0117600    1.2213988    2.3637856 
C    -3.3367925   -1.0908589    1.9448709 
C    -3.6917938    1.6469726    0.0738545 
C    -3.9589525    1.1122654    1.3872175 
C    -4.3315573   -0.3305966    1.2458490 
C    -3.5579874    0.3546267   -2.0425301 
C    -3.4283219   -1.0817093   -2.0537846 
C    -3.9415000   -1.5987232   -0.7773306 
C    -4.2375450    0.7185465   -0.8522873 
C    -4.5667564   -0.5399212   -0.1071271 
