60 

C    -0.8294681   -4.3610940   -0.3907812 
C    -1.0725245   -4.0322369    0.9311907 
C     0.2094022   -3.7978128    1.6189375 
C     0.6469845   -4.2991457   -0.5737449 
C     1.2658212   -3.8377450    0.6564279 
C     0.8782957   -3.6209384   -1.7514524 
C    -1.4587819   -3.5979567   -1.4575221 
C    -0.4161059   -3.2091691   -2.3532961 
C    -2.4153206   -2.6200448   -1.1240287 
C    -1.9780295   -2.9668693    1.3011334 
C    -2.7119887   -2.3467716    0.2847349 
C     0.0327730   -2.6919762    2.4700950 
C    -1.3113148   -2.1390025    2.3086047 
C     1.0994120   -1.8012778    2.6296106 
C     2.2288803   -2.7642556    0.6215509 
C     2.2478990   -1.8821078    1.7522663 
C     1.7885361   -2.5249224   -1.8268902 
C     2.5572507   -2.1412826   -0.6791186 
C    -0.2694890   -1.8883342   -2.8041028 
C     1.1312126   -1.5023738   -2.6031748 
C    -2.3894178   -1.3275900   -1.7746120 
C    -1.2918324   -0.8990098   -2.5775619 
C    -3.0175263   -0.9533185    0.4253039 
C    -2.9664661   -0.3506104   -0.8751663 
C    -1.5358844   -0.7500127    2.4192425 
C    -2.5648267   -0.1847542    1.5453297 
C     0.8549473   -0.4292590    2.9660908 
C    -0.4443840    0.1396786    2.8680170 
C     2.8172910   -0.5574914    1.7046985 
C     2.0160263    0.3234920    2.5429654 
C     3.0501175   -0.8084829   -0.7046106 
C     3.3097650   -0.0470249    0.5052987 
C     1.4882514   -0.1531846   -2.5212692 
C     2.6220056    0.1419170   -1.6980929 
C    -0.9387158    0.5191535   -2.6213641 
C     0.4644517    0.8751458   -2.7389098 
C    -2.8097031    1.0308812   -1.0496085 
C    -1.8701982    1.5129457   -2.0719675 
C    -2.6607183    1.2051244    1.4003785 
C    -3.0002466    1.8098296    0.1419369 
C    -0.5414422    1.5865051    2.6644874 
C    -1.7542958    2.1261874    2.1071563 
C     1.9134316    1.6733246    2.2687912 
C     0.6459283    2.3583347    2.4302229 
C     3.1890359    1.3662850    0.2110163 
C     2.8199933    1.4743990   -1.1868248 
C     2.5904234    2.2453069    1.1230548 
C     0.8577078    2.2226308   -2.4846619 
C     2.0195313    2.5139627   -1.6242189 
C    -1.4643710    2.8760578   -1.9968758 
C    -0.1077669    3.2131616   -2.2585164 
C    -2.5421510    3.1557641    0.1932306 
C    -1.7642551    3.3567174    1.4352246 
C    -1.8690559    3.7183992   -0.8683864 
C     0.6542587    3.5297819    1.5665389 
C     1.8050410    3.3755694    0.6671653 
C     1.6390742    3.5881518   -0.7179420 
C     0.3795618    4.1027226   -1.1851060 
C    -0.5598250    4.0545702    1.0860000 
C    -0.6672049    4.3900557   -0.3268953 
