44
0 1
C       -2.786731   -1.952454   -0.041864 
C       -3.069190   -0.656691    0.612459 
C       -2.919049    0.390180   -0.360907 
C       -2.327008   -1.704577   -1.336168 
C       -2.527244   -0.277129   -1.631695 
C       -0.988624   -2.308678   -1.518455 
C       -1.697090   -2.598693    0.726892 
C       -0.666290   -2.947752   -0.229379 
C       -2.323717   -0.622675    1.825453 
C       -1.387770   -1.800418    1.848725 
C       -1.867025    0.615361    2.265444 
C       -2.316764    1.628779    0.020975 
C       -1.907575    1.763662    1.378308 
C       -1.535048    2.319203   -0.994455 
C       -1.651939    0.334531   -2.483641 
C       -1.371014    1.744459   -2.262646 
C       -0.003999   -1.623737   -2.249620 
C       -0.355580   -0.339436   -2.860232 
C        1.375985   -1.804006   -1.853884 
C        0.646998   -2.952793    0.221077 
C        1.680017   -2.607411   -0.734093 
C       -0.006761   -1.630290    2.244882 
C        0.973479   -2.319632    1.511945 
C       -0.605548    0.649055    3.019320 
C        0.353112   -0.349897    2.858853 
C       -0.721754    2.576891    1.708025 
C       -0.005107    1.969664    2.739657 
C       -0.211749    2.949128   -0.635555 
C        0.230966    2.945833    0.643914 
C        0.017803    1.977580   -2.734209 
C        0.609812    0.653660   -3.018068 
C        0.738768    2.577143   -1.700761 
C        2.319773   -0.632675   -1.827233 
C        1.871257    0.609757   -2.263899 
C        1.919513    1.755195   -1.373309 
C        2.773558   -1.970684    0.036545 
C        2.315813   -1.723521    1.331497 
C        3.064962   -0.674893   -0.613981 
C        1.653660    0.316690    2.484452 
C        1.382136    1.729154    2.267424 
C        1.550190    2.306364    1.000927 
C        2.327630    1.613829   -0.016275 
C        2.525376   -0.298225    1.631221 
C        2.921772    0.370152    0.362331 
