44
0 1
C       -3.581949   -1.345486    0.608162 
C       -3.977071   -0.028186    0.752971 
C       -3.867980    0.631219   -0.574673 
C       -3.086845   -1.579033   -0.801320 
C       -3.218610   -0.366910   -1.516681 
C       -1.797352   -2.169568   -0.710063 
C       -2.408967   -1.611067    1.493583 
C       -1.432684   -2.295459    0.730583 
C       -2.957020    0.646608    1.645345 
C       -2.013070   -0.382116    2.123918 
C       -2.974612    1.692304   -0.447862 
C       -2.408180    1.718421    0.937111 
C       -2.040268    0.237449   -2.089980 
C       -1.984535    1.622731   -1.538717 
C       -0.746353   -1.760168   -1.580545 
C       -0.810475   -0.458103   -2.218412 
C        0.530234   -2.292871   -1.239249 
C       -0.078564   -2.219939    1.124304 
C        0.844414   -2.650129    0.106986 
C       -0.628404   -0.087474    2.260311 
C        0.320468   -1.163027    2.024692 
C       -1.027430    2.089642    1.115447 
C       -0.186050    1.290875    1.992790 
C       -0.793682    2.222359   -1.351041 
C       -0.402534    2.721806    0.003989 
C        0.467137    0.301163   -2.345288 
C        0.440724    1.688613   -1.961964 
C        1.747682   -1.758119   -1.844478 
C        1.718359   -0.330889   -2.221724 
C        2.282624   -2.486994    0.301777 
C        2.841360   -2.022800   -1.012134 
C        1.733345   -0.870880    2.106607 
C        2.702020   -1.615846    1.282908 
C        1.209209    1.555532    1.999106 
C        2.146963    0.464355    2.178145 
C        0.994745    2.900205   -0.031492 
C        1.532762    2.285667   -1.311539 
C        1.792931    2.435003    1.014642 
C        2.881999    0.288138   -1.554656 
C        3.544487   -0.741061   -0.751059 
C        3.629341   -0.576857    0.642443 
C        3.313227    0.674180    1.232831 
C        2.743342    1.578148   -1.001366 
C        3.005262    1.768566    0.425594 
