44
0 1
C       -3.655185   -1.183750   -0.178307 
C       -3.267745   -0.437580   -1.407103 
C       -3.298865    0.931298   -1.106345 
C       -3.624012   -0.193840    0.955378 
C       -3.405455    1.063006    0.429471 
C       -2.652312   -0.703578    1.913305 
C       -2.658727   -2.142731    0.068572 
C       -2.133198   -1.942642    1.407752 
C       -2.029084   -1.002743   -1.912280 
C       -1.663683   -2.121167   -1.020735 
C       -0.989846   -0.146265   -2.401130 
C       -2.243853    1.766053   -1.517638 
C       -1.097603    1.268458   -2.191069 
C       -2.278807    1.903452    0.853610 
C       -1.742920    2.493047   -0.303948 
C       -1.517540    0.101238    2.357027 
C       -1.338686    1.423790    1.876139 
C       -0.715210   -1.994209    1.642561 
C       -0.356478   -0.788088    2.398195 
C       -0.323313   -2.410216   -0.754055 
C        0.169712   -2.454481    0.647523 
C        0.333302   -0.674664   -2.387843 
C        0.614012   -1.895651   -1.716789 
C        1.564540    0.169234   -2.328713 
C        0.095737    2.001622   -1.678119 
C       -0.336657    2.707953   -0.499683 
C        1.427666    1.507567   -1.787391 
C        0.008798    1.898862    1.817652 
C        0.485901    2.692245    0.642381 
C        0.970531   -0.312512    2.394342 
C        1.123129    1.110732    2.254674 
C        1.552387   -2.211984    0.905557 
C        1.968651   -1.182976    1.818510 
C        2.038283   -1.958470   -1.466994 
C        2.641506   -0.655625   -1.958423 
C        2.523681   -2.241975   -0.204647 
C        3.253928   -0.641744    1.324591 
C        3.608453   -0.241498   -0.980250 
C        3.597303   -1.281930    0.121026 
C        2.374839    1.901607   -0.779674 
C        1.848392    2.462047    0.445688 
C        2.334521    1.607231    1.579019 
C        3.458388    1.011297   -0.392820 
C        3.335521    0.799583    1.120983 
