44
0 1
C        3.188464   -0.360297   -1.642485 
C        3.420638    0.736332   -0.655758 
C        3.471609    0.175943    0.612669 
C        2.968189   -1.616369   -0.861325 
C        3.241754   -1.328703    0.481207 
C        1.653560   -2.118814   -1.220078 
C        2.009642   -0.070793   -2.329296 
C        1.059578   -1.183097   -2.185396 
C        2.417443    1.763875   -0.940781 
C        1.529157    1.276248   -1.985434 
C        1.834628    2.443275    0.148319 
C        2.597159    0.652457    1.687958 
C        1.816060    1.785732    1.489388 
C        2.303529   -1.706079    1.480847 
C        1.927839   -0.477870    2.275078 
C        0.798173   -2.667981   -0.221765 
C        1.124066   -2.390785    1.163630 
C       -0.575791   -2.732930   -0.558094 
C       -0.315737   -0.941488   -2.246003 
C       -1.121718   -1.972656   -1.648704 
C        0.140103    1.556392   -2.005243 
C       -0.832322    0.457312   -2.267161 
C        0.574258    3.017786   -0.067020 
C       -0.263151    2.652386   -1.172879 
C        0.439540    1.842967    1.991644 
C       -0.249623    2.836549    1.187392 
C        0.544045   -0.497372    2.514776 
C        0.042297   -1.799493    2.015365 
C       -0.277854    0.676639    2.381231 
C       -1.602692   -2.745634    0.508362 
C       -1.263691   -1.966827    1.726242 
C       -2.538048   -1.741951   -1.375875 
C       -2.801886   -2.269609    0.004204 
C       -2.179149    0.653198   -1.919575 
C       -3.020368   -0.458217   -1.460491 
C       -1.629052    2.717387   -0.685150 
C       -1.561830    2.695312    0.839567 
C       -2.548453    1.788822   -1.073766 
C       -1.708946    0.513209    2.023631 
C       -2.219696   -0.822846    1.798021 
C       -3.229112   -1.088890    0.827179 
C       -3.596448   -0.068156   -0.095352 
C       -2.352676    1.556894    1.290481 
C       -3.213486    1.228140    0.170442 
