44
0 1
C        2.156291    2.660512   -0.046917 
C        3.006016    1.459916   -0.072889 
C        2.742806    0.772904   -1.283904 
C        1.272641    2.604454   -1.240018 
C        1.578282    1.442683   -1.962250 
C       -0.084991    2.883090   -0.776013 
C        1.354679    2.628633    1.096228 
C       -0.042255    2.890395    0.712906 
C        2.826667    0.777914    1.201933 
C        1.703761    1.435344    1.903214 
C        2.931878   -0.614513    1.210426 
C        2.843808   -0.637719   -1.280586 
C        3.087704   -1.307629   -0.056894 
C        1.830216   -1.400769   -2.019721 
C        0.497092    0.643653   -2.521969 
C        0.639937   -0.756551   -2.562140 
C       -1.133530    2.263548   -1.404828 
C       -0.849581    1.165839   -2.373332 
C       -2.356100    1.907129   -0.658939 
C       -1.043420    2.284179    1.412646 
C       -2.311672    1.916497    0.750135 
C        0.667813    0.693599    2.484462 
C       -0.707247    1.194732    2.391920 
C        1.954236   -1.352718    1.983237 
C        0.817704   -0.747176    2.525118 
C        2.189299   -2.534173   -0.024604 
C        1.434019   -2.535247   -1.256270 
C        1.505815   -2.542542    1.164502 
C       -0.480054   -1.644089   -2.222586 
C       -0.023306   -2.602413   -1.227902 
C       -1.945583    0.296156   -2.349450 
C       -2.946047    0.776971   -1.324805 
C       -1.780920   -1.133670   -2.161692 
C       -3.406098   -0.338189   -0.614686 
C       -2.626518   -1.548665   -1.087775 
C       -2.853235    0.797761    1.470379 
C       -1.790412    0.336619    2.435830 
C       -3.356838   -0.329361    0.804601 
C       -0.343614   -1.635843    2.219806 
C        0.046051   -2.588907    1.227760 
C       -0.730370   -2.723736    0.010681 
C       -2.077377   -2.216738    0.049844 
C       -1.646831   -1.115421    2.237362 
C       -2.550715   -1.526460    1.237178 
