44
0 1
C        3.846075   -0.700202    0.599013 
C        4.048200    0.094930   -0.523893 
C        3.622482    1.470187   -0.221109 
C        3.154717    0.093146    1.677374 
C        3.028741    1.458191    1.174927 
C        1.994707   -0.601262    2.037060 
C        2.932744   -1.822503    0.258847 
C        1.894460   -1.843581    1.198789 
C        3.136929   -0.407628   -1.616641 
C        2.562115   -1.673069   -1.159619 
C        2.576160    1.793851   -1.096210 
C        2.250951    0.638608   -1.967876 
C        1.751885    2.010410    1.107677 
C        1.454327    2.342971   -0.331598 
C        0.752398    0.088978    2.334325 
C        0.641906    1.464801    1.868516 
C       -0.427989   -0.664402    2.415862 
C        0.592345   -2.341061    0.846579 
C       -0.507971   -1.971233    1.689014 
C        1.253363   -1.938301   -1.497902 
C        0.313290   -2.524152   -0.526808 
C        0.864054    0.383629   -2.266588 
C        0.459374   -0.967228   -2.260069 
C        0.175602    2.287727   -0.808017 
C       -0.166650    1.378383   -1.937340 
C       -0.628823    1.947981    1.552433 
C       -0.869881    2.512847    0.187452 
C       -1.748727   -0.060255    2.357129 
C       -1.854209    1.283587    1.944425 
C       -1.819757   -2.144954    1.247454 
C       -2.670554   -1.020930    1.764828 
C       -1.036975   -2.333590   -1.038315 
C       -0.941672   -1.329219   -2.115056 
C       -2.126795   -2.303553   -0.165957 
C       -1.507050    1.058558   -2.135559 
C       -1.921184   -0.359131   -2.253288 
C       -2.199183    2.402056   -0.127284 
C       -2.900379    1.661853    1.000478 
C       -2.585242    1.728193   -1.366430 
C       -3.598457   -0.663569    0.792927 
C       -3.252071   -1.434099   -0.472576 
C       -3.182156   -0.531130   -1.533101 
C       -3.760718    0.723434    0.431413 
C       -3.600382    0.810729   -1.065284 
