44
0 1
C       -3.783163   -0.311438   -0.348618 
C       -3.302969   -1.672427   -0.585088 
C       -2.588562   -2.085123    0.663890 
C       -3.317398    0.098604    0.917208 
C       -2.499439   -0.982643    1.530370 
C       -2.740414    1.443407    0.820270 
C       -3.075233    0.571793   -1.337914 
C       -2.636695    1.750266   -0.626506 
C       -2.302545   -1.605937   -1.578942 
C       -2.112713   -0.209249   -2.032142 
C       -1.338600   -2.706083    0.230070 
C       -1.110296   -2.345316   -1.149730 
C       -0.252721   -2.681628    1.107282 
C       -1.234688   -0.632383    2.188691 
C       -0.136445   -1.568801    2.097720 
C       -1.691840    1.778802    1.655713 
C       -0.881751    0.713953    2.319906 
C       -0.771510    2.791423    1.207296 
C       -1.490451    2.382009   -1.098823 
C       -0.687163    3.116298   -0.144120 
C       -0.777851    0.278659   -2.264713 
C       -0.568392    1.643385   -1.975201 
C        0.183800   -1.992653   -1.610639 
C        0.380412   -0.660923   -2.229137 
C        1.006513   -2.880887    0.528229 
C        1.254198   -2.576322   -0.856577 
C        1.231715   -1.178029    2.163146 
C        2.015863   -2.122347    1.345024 
C        0.531367    1.145554    2.293574 
C        0.603519    2.420192    1.681796 
C        1.621831    0.216396    2.132826 
C        0.746914    3.001231   -0.557494 
C        0.787807    2.147490   -1.681631 
C        1.537183    2.674947    0.622153 
C        1.677601   -0.126598   -2.223915 
C        1.896744    1.293855   -1.846166 
C        2.587543   -2.020074   -0.921229 
C        3.041777   -1.744202    0.525873 
C        2.807584   -0.869295   -1.650962 
C        2.741069    0.622292    1.339888 
C        2.613223    1.797696    0.471674 
C        2.945520    1.377201   -0.886898 
C        3.502135   -0.371110    0.551811 
C        3.586522    0.078017   -0.787965 
