44
0 1
C        3.229425   -1.152741    0.053065 
C        2.509005   -2.309221    0.256653 
C        1.659824   -2.567570   -0.985261 
C        2.922320   -0.677873   -1.360604 
C        1.764530   -1.455774   -1.829660 
C        2.922317    0.677905   -1.360602 
C        3.082875    0.000011    0.926059 
C        3.229430    1.152769    0.053065 
C        2.035904    0.000011    1.915363 
C        1.622583   -2.384284    1.369565 
C        1.294311   -1.221739    2.109682 
C        0.375726   -3.043063   -0.525975 
C        0.350627   -3.005294    0.895049 
C       -0.769879   -2.589528   -1.232600 
C        0.572249   -0.741462   -2.301166 
C       -0.647976   -1.414599   -2.149471 
C        1.764530    1.455790   -1.829646 
C        0.572233    0.741480   -2.301148 
C        2.509006    2.309217    0.256645 
C        1.659802    2.567563   -0.985254 
C        1.294299    1.221761    2.109659 
C        1.622571    2.384295    1.369553 
C       -0.185843    1.215058    2.289669 
C       -0.185834   -1.215032    2.289720 
C       -0.727779   -2.360978    1.588163 
C       -0.926899   -0.000019    2.371255 
C       -1.974891   -2.483718   -0.527228 
C       -1.977818   -2.272184    0.924363 
C       -1.932691   -0.700162   -2.079396 
C       -2.788704   -1.391735   -1.138968 
C       -0.647989    1.414603   -2.149443 
C       -1.932693    0.700160   -2.079392 
C        0.375695    3.043047   -0.525941 
C        0.350601    3.005288    0.895036 
C       -0.727790    2.360939    1.588156 
C       -0.769930    2.589535   -1.232558 
C       -2.788709    1.391725   -1.138972 
C       -1.977847    2.272144    0.924394 
C       -1.974899    2.483714   -0.527237 
C       -2.293340   -0.000032    1.875643 
C       -2.807393   -1.163878    1.202045 
C       -3.436791   -0.705207   -0.102151 
C       -2.807389    1.163892    1.202026 
C       -3.436781    0.705188   -0.102154 
