44
0 1
C        3.984053    0.105768   -0.205144 
C        3.612554    1.145707    0.619675 
C        2.692942    2.049600   -0.123168 
C        3.251251    0.268744   -1.519872 
C        2.409601    1.464222   -1.417274 
C        2.612985   -0.924038   -1.788763 
C        3.494809   -1.176686    0.398904 
C        2.810289   -1.863288   -0.599256 
C        2.817208    0.621475    1.785002 
C        2.766113   -0.828918    1.631134 
C        1.622252    2.349560    0.761117 
C        1.630369    1.368661    1.894366 
C        0.406109    2.655811    0.189943 
C        1.052973    1.425603   -1.871234 
C        0.182660    2.339415   -1.208666 
C        1.216557   -0.996707   -2.171527 
C        0.417915    0.167829   -2.320292 
C        1.544091   -2.491406   -0.359541 
C        0.652020   -2.157371   -1.488428 
C        1.530836   -1.428437    1.863051 
C        0.985851   -2.420754    0.922893 
C        0.366086    0.758351    2.247012 
C        0.385838   -0.647420    2.337012 
C       -0.854271    2.458008    0.921832 
C       -0.910742    1.420697    1.906380 
C       -1.233563    2.261013   -1.386909 
C       -1.883304    2.582572   -0.058740 
C       -1.043807    0.000675   -2.288684 
C       -1.875351    1.156020   -1.955424 
C       -0.706379   -2.267921   -1.346918 
C       -1.589548   -1.263195   -1.942382 
C       -0.457675   -2.458571    1.075735 
C       -0.833737   -1.416335    2.060510 
C       -1.276723   -2.640109   -0.033735 
C       -2.131997    0.675445    1.974316 
C       -2.061054   -0.806936    2.024681 
C       -3.066964    1.860271    0.026914 
C       -3.163011    0.999592   -1.248686 
C       -3.260316    1.001474    1.131548 
C       -2.861143   -1.391124   -1.229618 
C       -2.622596   -2.133338   -0.018376 
C       -3.098365   -1.333012    1.103490 
C       -3.666039   -0.230985   -0.895798 
C       -3.848776   -0.259962    0.602921 
