44
0 1
C       -3.616044   -1.343338   -0.749080 
C       -4.084110   -0.047848   -0.251813 
C       -3.748742    0.057986    1.104379 
C       -2.906274   -2.025265    0.399305 
C       -2.935575   -1.132469    1.531290 
C       -1.640421   -2.421618   -0.050921 
C       -2.618711   -1.085620   -1.716925 
C       -1.429699   -1.876689   -1.444847 
C       -3.308086    1.003695   -0.988203 
C       -2.390933    0.363479   -1.860224 
C       -2.893838    1.246548    1.332921 
C       -2.755831    1.913495    0.030839 
C       -1.720670   -0.646502    2.083875 
C       -1.719489    0.841839    2.001476 
C       -0.507356   -2.295550    0.807219 
C       -0.474870   -1.300487    1.835069 
C        0.722716   -2.643013    0.182114 
C       -0.175309   -1.453778   -1.832914 
C        0.911279   -2.218999   -1.251133 
C       -1.028951    0.841236   -2.060405 
C        0.096310   -0.045481   -2.196635 
C       -1.545364    2.471883   -0.233413 
C       -0.778832    2.130919   -1.471277 
C       -0.473703    1.535127    1.803936 
C       -0.527478    2.563546    0.827734 
C        0.802590   -0.618148    2.100832 
C        0.803453    0.858104    2.058812 
C        1.916626   -2.458605    0.855618 
C        1.992142   -1.326363    1.801742 
C        2.232417   -1.903672   -1.448996 
C        2.977011   -2.269171   -0.188932 
C        1.481612    0.430525   -2.073138 
C        2.570830   -0.491624   -1.765245 
C        0.527967    2.568436   -1.289363 
C        0.674629    2.980084    0.168320 
C        1.677811    1.777888   -1.624695 
C        1.992285    1.513490    1.639005 
C        1.893008    2.551740    0.614061 
C        2.671777    2.059260   -0.586572 
C        3.222808   -0.615216    1.456956 
C        3.761816   -1.207330    0.171801 
C        3.624708   -0.131102   -0.873981 
C        3.180251    0.754136    1.303014 
C        3.546240    1.094471   -0.151608 
