44
0 1
C       -3.837423   -0.025288    0.161385 
C       -3.264464    1.227021    0.708316 
C       -2.725342    1.959479   -0.354479 
C       -3.438773   -0.096945   -1.287348 
C       -2.752394    1.097736   -1.602818 
C       -2.743556   -1.309312   -1.473926 
C       -3.282631   -1.117067    0.844833 
C       -2.704142   -2.036573   -0.128888 
C       -2.396386    0.869812    1.825054 
C       -2.387713   -0.615100    1.914010 
C       -1.197246    1.557529    1.985300 
C       -1.421460    2.547812   -0.261545 
C       -0.729993    2.492249    0.953283 
C       -1.434075    1.083992   -2.142314 
C       -0.680102    2.176680   -1.482893 
C       -1.427317   -1.336182   -2.011975 
C       -0.736677   -0.141858   -2.397404 
C       -1.443076   -2.567342    0.038968 
C       -0.673502   -2.339163   -1.221426 
C       -1.191805   -1.256160    2.146516 
C       -0.697259   -2.353346    1.262179 
C       -0.000001    0.874130    2.489903 
C        0.000003   -0.510121    2.560474 
C        0.729989    2.492252    0.953287 
C        1.197241    1.557527    1.985298 
C        0.680089    2.176662   -1.482903 
C        1.421432    2.547797   -0.261564 
C        0.736671   -0.141842   -2.397409 
C        1.434072    1.083981   -2.142344 
C        0.673501   -2.339173   -1.221411 
C        1.427309   -1.336190   -2.011943 
C        0.697263   -2.353348    1.262177 
C        1.191815   -1.256161    2.146513 
C        1.443101   -2.567355    0.038991 
C        2.396391    0.869820    1.825055 
C        2.387718   -0.615096    1.914005 
C        2.725327    1.959484   -0.354474 
C        2.752399    1.097751   -1.602808 
C        3.264467    1.227031    0.708317 
C        2.743551   -1.309300   -1.473947 
C        2.704157   -2.036576   -0.128902 
C        3.282636   -1.117057    0.844827 
C        3.438774   -0.096917   -1.287354 
C        3.837427   -0.025275    0.161380 
