44
0 1
C       -3.932821    0.604228   -0.117997 
C       -3.932466   -0.561640   -0.867343 
C       -3.536739   -1.680005    0.028482 
C       -3.385338    0.321706    1.269314 
C       -3.156009   -1.052554    1.354734 
C       -2.306739    1.258442    1.524780 
C       -2.996271    1.582838   -0.722018 
C       -2.209430    2.135382    0.331593 
C       -2.821611   -0.423529   -1.888410 
C       -2.309512    0.954518   -1.815822 
C       -2.359774   -2.228968   -0.484167 
C       -1.898671   -1.455423   -1.672776 
C       -1.805753   -1.489344    1.676682 
C       -1.357904   -2.337110    0.582490 
C       -1.099960    0.841518    2.152877 
C       -0.848657   -0.599442    2.253515 
C        0.064494    1.685282    1.994753 
C       -0.965650    2.656054   -0.018889 
C        0.060702    2.665140    0.986814 
C       -0.914962    1.192668   -2.002565 
C       -0.337281    2.264509   -1.272404 
C       -0.483999   -1.255184   -1.855818 
C       -0.033430    0.041406   -2.267723 
C       -0.011054   -2.444765    0.259115 
C        0.439465   -2.107751   -1.109995 
C        0.497365   -1.054725    2.221639 
C        0.879225   -2.113163    1.325750 
C        1.462457    1.188150    2.104739 
C        1.668922   -0.154619    2.340930 
C        1.376220    2.650512    0.299993 
C        1.121252    2.361900   -1.069938 
C        2.293966    1.863197    1.070579 
C        1.377409    0.250250   -2.330637 
C        1.992821    1.474903   -1.720585 
C        1.813233   -1.972469   -1.341272 
C        2.259327   -0.827616   -2.116498 
C        2.292125   -2.060314    1.063222 
C        2.821284   -0.809221    1.737343 
C        2.780725   -2.132173   -0.229889 
C        3.308595    1.176082    0.381314 
C        3.199602    1.106649   -1.071157 
C        3.503989   -0.297605   -1.476469 
C        3.678634   -0.166125    0.855169 
C        3.812215   -1.051589   -0.363454 
