44
0 1
C        2.386905   -2.803233   -0.376450 
C        1.257526   -3.471932    0.252661 
C        0.137241   -3.298898   -0.563410 
C        1.846421   -2.097242   -1.611293 
C        0.438509   -2.365031   -1.695157 
C        2.280208   -0.758504   -1.599644 
C        2.816279   -1.785300    0.479965 
C        3.063626   -0.590123   -0.320281 
C        0.958353   -2.701438    1.526761 
C        1.864402   -1.640763    1.625972 
C       -0.996260   -2.942536    0.290890 
C       -0.458851   -2.401324    1.546774 
C       -2.066410   -2.339035   -0.299619 
C       -0.469621   -1.326715   -2.002023 
C       -1.853976   -1.532799   -1.562933 
C        1.415969    0.311405   -2.001283 
C        0.005703    0.041873   -2.190996 
C        1.863195    1.642145   -1.625978 
C        3.063187    0.592383    0.320288 
C        2.814963    1.787387   -0.479960 
C        1.416188   -0.310354    2.001279 
C        2.279630    0.760191    1.599650 
C       -0.950506   -1.152060    2.009500 
C        0.005723   -0.041863    2.190991 
C       -2.920001   -1.579356    0.560459 
C       -2.319983   -0.877983    1.652122 
C       -2.789231   -0.516571   -1.568843 
C       -3.632644   -0.614053   -0.314363 
C       -0.951355    1.151354   -2.009513 
C       -2.320630    0.876251   -1.652126 
C        0.956334    2.702163   -1.526760 
C       -0.460648    2.400980   -1.546777 
C        2.384805    2.805027    0.376467 
C        1.844836    2.098624    1.611309 
C        1.254915    3.472892   -0.252650 
C       -0.470628    1.326361    2.002021 
C       -0.998475    2.941793   -0.290888 
C        0.436725    2.365364    1.695164 
C        0.134752    3.299009    0.563419 
C       -2.789621    0.514484    1.568828 
C       -3.633099    0.611342    0.314351 
C       -2.921167    1.577174   -0.560470 
C       -1.855130    1.531416    1.562931 
C       -2.068159    2.337491    0.299619 
