44
0 1
C        3.698281    0.439174    0.891919 
C        3.334205   -0.990460    0.862998 
C        3.267267   -1.408934   -0.462076 
C        3.585105    0.942609   -0.533027 
C        3.268892   -0.164789   -1.360108 
C        2.680547    2.010723   -0.533194 
C        2.739108    1.115511    1.663952 
C        2.202068    2.232323    0.905366 
C        2.123755   -1.147888    1.704429 
C        1.744233    0.144151    2.169818 
C        1.097623   -2.098233    1.329961 
C        2.181157   -2.218342   -0.897490 
C        1.144006   -2.665949    0.028489 
C        2.061418   -0.207798   -2.133099 
C        1.515364   -1.551932   -1.978661 
C        1.499230    1.996117   -1.346537 
C        1.106933    0.866179   -2.125816 
C        0.857016    2.505356    0.890593 
C        0.464926    2.651645   -0.542778 
C        0.354227    0.526523    2.312227 
C       -0.111741    1.806025    1.749400 
C       -0.201842   -1.862447    1.893022 
C       -0.574578   -0.515485    2.404137 
C       -1.344967   -2.416731    1.292830 
C       -0.087361   -2.708075   -0.757278 
C        0.099511   -1.818267   -1.911354 
C       -1.321694   -2.742303   -0.117303 
C       -0.342590    0.585546   -2.285150 
C       -0.838578   -0.810467   -2.207844 
C       -0.830243    2.587496   -0.910175 
C       -1.254883    1.595303   -1.916812 
C       -1.458507    1.981203    1.458937 
C       -1.844522    2.609702    0.160834 
C       -2.007931   -0.312719    2.158906 
C       -2.518491   -1.510002    1.526902 
C       -2.467812    0.934759    1.707433 
C       -2.415731   -2.055325   -0.748085 
C       -2.190101   -1.076968   -1.750648 
C       -3.265466   -1.433487    0.343656 
C       -2.662384    1.325683   -1.615330 
C       -3.001513    2.029474   -0.324276 
C       -3.454114    0.978742    0.632325 
C       -3.110625    0.028218   -1.509164 
C       -3.719199   -0.175859   -0.121930 
