44
0 1
C        3.294450   -0.539022   -1.613007 
C        3.680583    0.410406   -0.687963 
C        3.454229   -0.111644    0.696647 
C        2.775608   -1.733701   -0.873799 
C        2.942706   -1.467173    0.565285 
C        1.493722   -2.004298   -1.355725 
C        2.141689    0.007749   -2.392918 
C        1.100176   -0.902467   -2.309226 
C        2.817981    1.618965   -0.842783 
C        1.878579    1.375835   -1.894779 
C        2.718942    0.870017    1.413497 
C        2.349709    1.968373    0.467114 
C        1.735440    0.444349    2.341734 
C        1.907099   -1.861965    1.420097 
C        1.469190   -0.940223    2.430866 
C        0.469420   -2.538232   -0.496244 
C        0.690740   -2.516910    0.890885 
C       -0.884276   -2.447096   -0.979922 
C       -0.278378   -0.473627   -2.391137 
C       -1.237429   -1.448604   -2.046004 
C        0.527341    1.811298   -1.761850 
C       -0.573932    0.946173   -2.244426 
C        1.095954    2.550771    0.556910 
C        0.272359    2.655367   -0.639158 
C        0.438294    1.150019    2.481402 
C        0.189042    2.252304    1.692772 
C        0.003151   -1.118209    2.637800 
C       -0.442115   -2.161338    1.782378 
C       -0.641698    0.146173    2.659172 
C       -1.961654   -2.529604   -0.084643 
C       -1.743017   -2.080231    1.293552 
C       -2.605240   -1.070144   -1.845363 
C       -3.090448   -1.759547   -0.604371 
C       -1.916645    1.298165   -1.922401 
C       -2.921412    0.285922   -1.744757 
C       -1.089104    2.853955   -0.202675 
C       -1.165978    2.480615    1.257223 
C       -2.140353    2.275435   -0.856720 
C       -1.949044    0.288067    2.073370 
C       -2.550149   -0.881843    1.513813 
C       -3.453333   -0.781122    0.339485 
C       -3.564558    0.491730   -0.357545 
C       -2.220170    1.576572    1.442506 
C       -3.017468    1.608743    0.190910 
