34

 C     -2.7901270331     -0.0054825063     1.2071398338
C     -3.1953466405     0.305000563     -0.0983488971
C     -2.7831641883     -0.7962727328     -0.8714361116
C     -2.147388886     -1.340256288     1.2690978893
C     -2.1610146116     -1.8495150907     -0.0469106869
C     -0.8977987654     -1.1897304946     1.9629212977
C     -1.8309506023     0.9545821518     1.6545114681
C     -0.7221464178     0.2867188606     2.2520769423
C     -2.3291424352     1.4588716303     -0.5416094636
C     -1.5969081217     1.9476778698     0.5794064551
C     -1.8335877304     -0.3814181412     -1.8578879723
C     -1.6002306006     1.0701936758     -1.7156249843
C     -0.9203482885     -2.2115329523     -0.6787481339
C     -0.7414194056     -1.2976666552     -1.8713958522
C     0.2128306196     -1.9067693923     1.5019166156
C     0.20238265     -2.4482668913     0.1200464657
C     1.5496441405     -1.3568111963     1.7056754459
C     0.554753425     0.8954144341     2.1712654295
C     1.7156175636     0.0316826408     2.0393081705
C     -0.2692881637     2.4373798648     0.4052027485
C     0.7527542922     2.0820680695     1.3656541982
C     -0.2798000846     1.5567073369     -1.8899848021
C     0.3092457874     2.4345011401     -0.9163245658
C     0.5527400029     -0.8327625533     -2.2103778121
C     0.7489970827     0.6157932915     -2.301869374
C     1.5370525906     -2.1832614608     -0.4255193708
C     2.3854505216     -1.6704877706     0.6122699306
C     1.7076822072     -1.4045789309     -1.5895525309
C     2.5888591824     0.6149532939     1.0523075292
C     1.9743130015     1.8461571481     0.6097947126
C     1.7182703474     2.046156307     -0.7689029033
C     1.9841174181     0.9592679709     -1.6627564732
C     3.0081948599     -0.4103044753     0.1351614439
C     2.5957572825     -0.2580047172     -1.1965086424


