94

 C     1.3978577899     -2.1147443991     -3.5072608293
C     2.0582590993     -0.8862178272     -3.6651773399
C     3.3231562387     -0.7790835241     -3.0163798224
C     1.8577501961     1.5578661622     -3.6183249967
C     1.2561829755     0.3093237179     -3.9037239494
C     -0.9492891483     1.4303573019     -3.5791775325
C     -0.1917846641     0.2380527849     -3.8953951488
C     -0.8433004413     -1.056685176     -3.7285179491
C     -0.0371587511     -2.1964036697     -3.556401281
C     -2.3231675709     1.3002917024     -3.2978234629
C     -0.3044376163     2.6414584807     -3.1119073393
C     -0.962093042     3.4777058923     -2.1037654752
C     1.0939610033     2.6953540274     -3.2203962639
C     -0.1601335414     4.2332172475     -1.229330423
C     3.7320239848     -1.715533994     -2.0226246796
C     1.8828314416     -3.124873637     -2.6100968527
C     2.9794636393     -2.87918989     -1.7404043613
C     0.7364360825     -3.8740614455     -2.1742153605
C     0.7158908242     -4.4009480213     -0.9017375141
C     -0.4522259215     -3.3006712498     -2.7340677798
C     -0.5070840559     -4.3764561146     -0.1461751704
C     -1.6957482702     -3.8268273697     -0.671527919
C     -1.667341254     -3.2711821393     -2.0211208732
C     -2.9743472707     0.0274828962     -3.2308885075
C     -2.2180809661     -1.1608351754     -3.2749389336
C     -2.6312948904     -2.2701108098     -2.4156993671
C     -3.7570865586     -2.1021794361     -1.5785679536
C     1.839611558     -4.1957681138     -0.0095127823
C     2.9418569688     -3.3842225406     -0.3619428317
C     3.6226685554     -2.630403261     0.7000454059
C     1.2864941106     -4.1771016282     1.3153552194
C     1.90294759     -3.4441182914     2.2994739118
C     3.1136148022     -2.7350294135     2.0164273691
C     -0.1526607118     -4.2111969138     1.2387821944
C     1.1051944467     -2.6720893843     3.2265011114
C     -0.2935348381     -2.6195780461     3.1217307912
C     -0.9530382638     -3.4564790208     2.1153387611
C     -3.7779440298     -2.6356350967     -0.2355006269
C     -2.6781841617     -3.3557442347     0.280453206
C     -2.2933570985     -3.1427203455     1.6731750879
C     -3.0057925297     -2.1881355742     2.4289923039
C     4.362756057     -1.4060585041     0.3679669762
C     4.4360610678     -0.9913307506     -0.9786428635
C     3.145759011     -1.6167667452     2.9371345583
C     3.8382385841     -0.4786657881     2.616647264
C     4.4866010645     -0.3661674559     1.3365265779
C     1.4050898345     2.1383135178     3.5125619773
C     3.3303994659     0.8045569056     3.0165722914
C     2.0671254987     0.9104405968     3.6687245879
C     1.8689157147     -1.5338379292     3.6224045331
C     -2.3130931506     -1.2804103753     3.3130154428
C     -0.9383431686     -1.4091124614     3.5907173368
C     -0.1811877893     -0.2160598884     3.9049173339
C     1.266874781     -0.2858977168     3.9094008185
C     -0.8344273888     1.0780282044     3.7397730442
C     -0.029875502     2.2185506574     3.5655112447
C     4.4376660625     1.0178998381     0.9758806302
C     4.3603668857     1.4325530787     -0.370528719
C     4.482664594     0.3927839721     -1.339415081
C     3.8307855202     0.5046427978     -2.6178068212
C     3.136329664     1.6420555685     -2.9364501993
C     2.9394556165     3.4093133054     0.3631543688
C     3.618185466     2.6561641855     -0.7006380714
C     3.1055260493     2.7602868838     -2.0156618153
C     1.835472746     4.2197651318     0.0136561911
C     1.2788509809     4.2005530787     -1.3097359285
C     1.8934086639     3.4681779208     -2.2954880898
C     3.7356946186     1.7414134238     2.0217276087
C     1.8866734987     3.1489185533     2.6141177623
C     2.9812342368     2.9043193932     1.7415114215
C     -0.4482237844     3.3223960152     2.7442951878
C     0.738378884     3.8969691325     2.1812807967
C     0.7139244592     4.4238296408     0.9088669089
C     -1.6652048581     3.2917017666     2.0345770829
C     -1.6977547869     3.8473164605     0.6850660943
C     -0.511032547     4.3981233892     0.156552637
C     -4.1259607885     -0.1462824168     2.4097554335
C     -2.9657066144     -0.0082577568     3.2478066828
C     -2.2105075069     1.1808145128     3.2898508282
C     -4.5307714055     0.9085251781     1.60841704
C     -3.7549544009     2.1206245979     1.5975703864
C     -2.6271075956     2.2896773639     2.4317124494
C     -5.011394311     -0.6395279061     -0.2401356597
C     -4.5441423934     -1.7370801133     0.585433718
C     -4.1437323415     -1.5002806018     1.8950659895
C     -5.0113696943     0.6567233423     0.262482968
C     -4.150247895     1.5183369716     -1.8750152052
C     -4.1325018646     0.1643573927     -2.3897568801
C     -4.5341300391     -0.8908546127     -1.5873449836
C     -4.5474063339     1.754739307     -0.5643250136
C     -2.6822468453     3.3752604946     -0.2643009559
C     -2.3009152767     3.1626190702     -1.6580412608
C     -3.014409993     2.2073202024     -2.411965369
C     -3.779916461     2.6540547005     0.2545747087


