94

 C     -4.3531369709     -1.5442954171     0.3810405947
C     -4.2618714861     -0.8646086658     1.6129155692
C     -3.4104343585     -2.2026746669     -2.2287319
C     -4.1456938319     -1.0671310938     -2.0657879512
C     -4.6807894138     -0.7383694445     -0.7637707554
C     -1.9161889367     1.4394554344     -3.5995530973
C     -3.7643968008     0.1402339904     -2.7560662343
C     -2.5445183343     0.187287066     -3.5118898692
C     -2.2150631881     -2.2043609134     -3.061307352
C     1.958620806     -1.8060995957     -3.2890394348
C     0.5665175545     -2.0095066013     -3.3700627943
C     -0.2704408203     -0.903226148     -3.7806868055
C     -1.7103870906     -1.0103283389     -3.6188851903
C     0.3375523579     0.4140224214     -3.871868833
C     -0.4936949419     1.5454665048     -3.7604774063
C     -4.7350056721     0.6773896891     -0.7008200064
C     -4.5488254396     1.3600156256     0.5315758476
C     -4.3492211451     0.5664729192     1.6937675473
C     -3.9399137457     2.6444264964     0.5090655446
C     -4.1775271461     1.2230823816     -1.9437085853
C     -2.3715499737     2.5742167151     -2.8421619
C     -3.4715102486     2.4589844176     -1.9542281583
C     -3.4112216362     3.2108667309     -0.7469924231
C     -3.1225749842     3.0830857091     1.5746629255
C     -2.7474312875     2.2070410958     2.6543927743
C     -3.4477965302     0.9943299442     2.7259453953
C     -2.8429854199     -0.1725836738     3.3125910767
C     -1.5174499187     -0.1427416243     3.8199009957
C     -0.8664615045     -1.3906328066     3.8858253298
C     -2.1564309947     3.9893177419     0.999714571
C     -1.3837283335     2.2721243041     3.2009793349
C     -0.7290275255     1.0753882261     3.7293431103
C     -0.9299062417     4.111715891     1.5622003616
C     -0.5622424564     3.3140114814     2.7266525853
C     -1.2143532671     3.3504813799     -2.4994143546
C     -1.1102324821     4.0299146729     -1.2720469159
C     -2.2873673529     4.0076541514     -0.442975167
C     -3.3666028401     -1.3199172652     2.6516827373
C     -1.4263451328     -2.5712919696     3.2827455287
C     -2.6217158853     -2.5164139055     2.526037041
C     -0.3228424583     -3.3977662983     2.8766183501
C     -0.4338846039     -4.1705486103     1.7360502437
C     0.9044331472     -2.7325968665     3.1750599741
C     0.6900413997     -4.2719011338     0.8488711036
C     1.9128275463     -3.6238577829     1.1154987946
C     2.0297112178     -2.8340517426     2.3384930296
C     3.4586412873     0.6062952443     2.8396832873
C     2.6978769339     -0.5402774435     3.1476844689
C     3.0171031434     -1.7812170021     2.4385923158
C     4.0310972144     -1.7665835081     1.4553518169
C     0.8427941948     3.2108768814     2.7146647408
C     1.5006562219     2.084876046     3.2475261036
C     0.7146054843     0.9691674791     3.7192902314
C     1.3647729235     -0.3461446249     3.7109709298
C     0.5606063003     -1.4822599766     3.8160226251
C     2.8364692267     1.8951620514     2.816705014
C     -1.6573009185     -4.1470378731     0.9640231452
C     -2.7414064422     -3.2964581799     1.2889949406
C     -3.5805221069     -2.7827449062     0.1991823048
C     -1.2637244288     -4.3693861883     -0.4001634945
C     -2.0201802225     -3.8401412665     -1.4188850625
C     -3.2212137178     -3.1265754763     -1.1265702843
C     0.1710232202     -4.3676338494     -0.496269126
C     -1.3652108003     -3.2329446065     -2.5592243681
C     0.0324484667     -3.13496342     -2.6313851764
C     0.8352553653     -3.7700636325     -1.5816480005
C     3.893512827     -2.5187970341     0.2249045775
C     2.7616447752     -3.3225939357     -0.0192208345
C     2.2072117485     -3.3628939072     -1.3708691128
C     2.7877519255     -2.5419432082     -2.3588654932
C     5.0630542185     -0.5453530407     -0.2639089743
C     4.5270424711     -1.7672716384     -0.826814598
C     3.9559545169     -1.7572380997     -2.0943023621
C     4.9485203005     0.653468295     -0.9634286586
C     4.4172564056     1.8499353229     1.114543429
C     4.4905869122     0.5938348427     1.8364187967
C     4.7813671465     -0.5771722691     1.1605608235
C     4.5732851308     1.8692401719     -0.266852671
C     1.3489101079     3.8666940656     1.5147108748
C     2.5554424078     3.4731249454     0.917809736
C     3.3882057476     2.6396456483     1.7127751135
C     -0.0602764233     2.7357700703     -3.0973765753
C     1.228858315     2.8524314742     -2.5458379891
C     1.3952793231     3.6075960746     -1.3126970884
C     0.2120472029     4.1578670242     -0.6643389421
C     0.2535035352     4.3147184     0.7473268104
C     3.6401963468     2.6031105092     -1.0977336583
C     2.6003872561     3.3889700355     -0.5365395157
C     3.8168754578     -0.5042556484     -2.8077160744
C     2.5539002657     -0.5260412328     -3.497024106
C     1.7421649086     0.6237083383     -3.6059115836
C     4.2731948645     0.6720712755     -2.2451511295
C     3.4432925661     1.8526661079     -2.302663841
C     2.1957547649     1.8562312388     -2.9612085977


