94

 C     -1.4279412868     1.1503730503     3.8174155788
C     -1.8240160037     -0.1735733097     3.6220413092
C     -0.7846594881     -1.1991012357     3.6880994125
C     -1.1047845405     -2.5016962508     3.1291099448
C     -2.3599039008     -2.7213674493     2.5227469762
C     -0.0656584211     -3.349124981     2.6877843145
C     -0.0654098954     1.5101362589     4.0266363993
C     0.9783942572     0.5620219901     3.9979716972
C     0.6109445004     -0.8357072903     3.8608596748
C     2.9685378415     -1.2929843562     3.1178609073
C     1.659562269     -1.7787224683     3.4485707067
C     1.2976656156     -3.0101202167     2.8730745027
C     3.2699244778     0.0853342283     3.1534035935
C     2.3034005096     1.0394741001     3.5839425693
C     2.4378403748     2.3413992934     3.0448799166
C     -0.1793923781     -4.0773556681     1.4534262405
C     -1.3462463644     -4.0440110594     0.6841405735
C     -2.4960484534     -3.5414642657     1.3492198507
C     -3.6295230272     -3.0661083566     0.613780916
C     -3.5765009124     -3.0299986365     -0.7687597945
C     1.1118074584     -4.1290098637     0.8501185379
C     2.5279305459     -3.5214920771     -0.9969891272
C     1.2668029196     -3.9691672836     -0.5700359694
C     0.0753254677     -3.7387323551     -1.3924612879
C     -1.2249049298     -3.9023419694     -0.7763057118
C     -2.3581834354     -3.4072536164     -1.4546190378
C     3.7596454887     -1.8875020701     2.0615309015
C     3.2564173286     -2.9749087776     1.3098701965
C     2.0442851333     -3.5651139267     1.7585187834
C     3.5309819408     -3.0496671507     -0.0822466646
C     -4.8143930883     -0.9157615053     0.6755487632
C     -4.7969578034     -0.8886289332     -0.7829569271
C     -4.2231373315     -1.9668144106     1.3507709834
C     -4.1573986936     -1.9098355627     -1.4790133289
C     -3.3069956533     -1.5858397061     -2.5817478805
C     -4.634115621     0.4646398085     -1.2036848255
C     -3.7999571045     0.8160382278     -2.295624562
C     -3.1071785759     -0.2588932601     -3.0093109857
C     0.4417841648     -0.6299090955     -4.2744992232
C     -0.8524000398     -1.0249089353     -3.8907666952
C     -1.8856391218     0.0059247057     -3.7576101145
C     -1.4872008248     1.3551015933     -3.8762548657
C     2.6590651342     -2.7719042835     -2.2159424185
C     1.5148140504     -2.4827431599     -3.0146514265
C     0.2007088271     -2.9546105124     -2.6069523618
C     -0.9650886726     -2.2725299205     -3.1467866163
C     -2.2157857859     -2.5494070473     -2.5849060227
C     1.6076226848     -1.3384957965     -3.8339150648
C     -4.0491627572     2.508470255     0.0280619983
C     -4.6471428552     0.4170643506     1.1622486155
C     -4.6712502876     1.2879059757     -0.0014470385
C     -3.3315104542     2.9801090259     -1.1225557687
C     -2.071242282     2.3843960588     -3.062578399
C     -3.2018357448     2.1497214203     -2.274368129
C     -3.3654052844     2.9342685785     1.2225574997
C     -3.2272181957     2.0457083889     2.3250591325
C     -3.8044735447     0.7075569524     2.2676301065
C     -3.1083191439     -0.3980883337     2.9319547018
C     -3.3811082292     -1.7019579505     2.4843496567
C     -2.1027727405     2.2553904509     3.1388255448
C     -2.281109739     3.7615551096     0.8038502268
C     -1.0986243406     3.8843202734     1.5521145928
C     -1.1179088916     3.2306378745     2.8245015962
C     1.2994144309     3.1979149532     2.9117214353
C     0.1038207249     2.8279012922     3.4631561254
C     -0.9996406983     3.2537396598     -2.6204486952
C     -1.0012109786     3.8345001055     -1.3287364483
C     -2.2390646194     3.763976032     -0.6399643814
C     0.2544662152     3.9574020185     -0.6083409562
C     0.1791971365     4.0691507729     0.8597962099
C     1.3410874595     3.8375592199     1.6070920679
C     0.2106319531     2.8471373448     -3.2386841386
C     1.4506142336     2.9406666901     -2.5830024858
C     1.4825977359     3.5388183616     -1.2439425236
C     3.698790871     2.4502692137     -0.8756427366
C     2.6647524111     3.2907890045     -0.4222063349
C     2.5650063656     3.4374824301     0.9975948731
C     2.1598148945     0.9129634612     -3.8649515975
C     0.808441538     0.7513137707     -4.3513438378
C     -0.1181227542     1.7201771199     -4.0948332332
C     3.6016377881     1.7729028405     -2.1556088551
C     2.4979314626     2.0002756401     -3.005418664
C     3.759243255     -1.8739547123     -2.0807763392
C     4.2427559485     0.5142326363     -2.0450480562
C     3.7379106069     -0.6165811447     -2.7428090284
C     2.7069959438     -0.3891108747     -3.6805950168
C     4.5155881915     -0.8489677101     1.4240497237
C     4.7246322528     0.3904164006     -0.6762745977
C     4.721892647     -0.8620302159     0.0073979172
C     4.2557462196     -1.999623355     -0.7353095344
C     3.2856821599     2.588715613     1.8989072799
C     4.4473629353     1.6109104547     0.0140186125
C     4.1774105331     1.6052912539     1.4153821386
C     4.2319579904     0.3735968     2.1122044034


