94

 C     -4.5591402726     -1.2601885424     -1.4050320343
C     -1.1518827628     -3.583401859     -2.2446374822
C     -2.3928073452     -2.9265018894     -2.1993629871
C     -3.2846531627     -3.3122016938     -1.1529001202
C     -4.3200467872     -2.4327127177     -0.7173345457
C     -0.713397091     -4.469364694     -1.1997492081
C     -1.4358164849     -4.514998888     0.0251394807
C     -2.7370265526     -3.9454658961     0.0210951338
C     -0.7156301023     -4.4572820536     1.2510533483
C     0.7155981421     -4.4697114352     -1.198427551
C     2.7371502355     -3.9462672049     0.026368231
C     1.4357683874     -4.5154183517     0.0280015176
C     0.7133636693     -4.4573537379     1.2523733271
C     -4.9809188859     -0.0669390019     0.6978344813
C     -4.5612536406     -1.2462787176     1.4162480831
C     -4.9798840563     -0.0738837387     -0.6989539394
C     -4.3211642362     -2.4253111011     0.7407724127
C     -3.286249382     -3.3005889767     1.1870377937
C     -2.3964295742     -2.9046149536     2.2317425027
C     -1.1559460922     -3.5610019203     2.2859435091
C     -3.2405583873     3.1463342172     1.3845731211
C     -4.1579125081     2.2901955716     0.7204456294
C     -4.4627297925     1.0883240342     1.3944387324
C     -3.6217207079     0.606747634     2.4599184008
C     -2.4820817458     1.3205715195     2.8907069124
C     -2.4292916802     2.6605667644     2.4549964616
C     -0.0015804036     2.7436772781     2.9014491486
C     -1.1852135196     3.372599561     2.4552344197
C     1.1830271289     3.3723671677     2.4575143097
C     -2.4871514529     -1.5586723969     2.7917362356
C     -3.6341053343     -0.8203766592     2.4534787496
C     1.2533467721     0.6005580829     3.2524471698
C     -0.0020908706     -2.9271659283     2.8371628109
C     -0.0023453723     -1.5461959037     3.2169600698
C     -1.2646937869     -0.8408691768     3.2087670408
C     -1.2576544288     0.600780714     3.2499270289
C     -0.0020445446     1.3203563986     3.2681636525
C     -4.1566683142     2.2829914955     -0.7431781921
C     -4.4604139055     1.0746253798     -1.4059423005
C     -2.446495548     4.1170479301     0.6732689577
C     -2.445221326     4.1101921968     -0.7108266661
C     -3.2380740345     3.132546651     -1.4140184908
C     -1.1946229549     4.3164373435     1.3839953802
C     0.0006765511     4.6637307178     0.7167734315
C     1.1946751496     4.3161457795     1.3862894617
C     -2.4248664389     2.6361662448     -2.4780130877
C     -2.4769932047     1.2919076428     -2.9005445542
C     -3.6175176361     0.5825236039     -2.4649512186
C     -3.6301449416     -0.844639865     -2.4443030721
C     -1.2591085892     -0.8727369376     -3.1946113641
C     -2.4823976255     -1.5863296649     -2.7729459151
C     -1.1806945783     3.3480890676     -2.4829149661
C     0.0037219812     2.7146452063     -2.9205564856
C     0.0037556491     1.2877382791     -3.2730591722
C     -1.251853081     0.5685119896     -3.2501676777
C     2.4837935158     1.2909672455     -2.8956180158
C     1.2591481924     0.5680004294     -3.2476446797
C     1.2657517903     -0.8731693173     -3.1921098053
C     0.0031900519     -1.5781610375     -3.1932704066
C     0.0025183329     -2.9552750057     -2.7997199761
C     3.6232174904     0.5811307918     -2.4577308001
C     3.6351702602     -0.8458618787     -2.4370577671
C     2.4879930564     -1.5871474073     -2.7679382763
C     2.4314093814     2.6352570666     -2.4732923955
C     1.1875461328     3.3476281091     -2.480632621
C     0.0020487691     4.6563910694     -0.7551362732
C     -1.1920554582     4.3025084019     -1.4211547536
C     1.1972425734     4.3020983783     -1.4188600148
C     2.3968647404     -2.9274105667     -2.1945497562
C     1.1561827623     -3.5839303137     -2.2422034719
C     3.2865655483     -3.3132156723     -1.1459463973
C     4.9822149643     -0.0753609867     -0.689013575
C     4.5621918431     -1.2616793913     -1.3956308025
C     4.3217467289     -2.4338441346     -0.7084311018
C     4.9811794616     -0.0683753121     0.7077742438
C     3.2428240664     3.1314291573     -1.4077658848
C     4.1599206088     2.2816792127     -0.7351315136
C     4.4643738806     1.073054367     -1.3971050926
C     3.2403402191     3.1455535762     1.3908241304
C     2.4477817754     4.1163769393     0.6779164976
C     2.4490555335     4.1094277013     -0.7061781245
C     4.4620588597     1.0872848567     1.4032733939
C     4.1586763258     2.2890727744     0.7284912709
C     2.4832388874     -1.5593075499     2.7967427568
C     1.2601663802     -0.8411750283     3.2112683584
C     3.6312099084     -0.8212790655     2.4607211547
C     3.6190143944     0.6060231448     2.4671346152
C     2.4787054463     1.3200605224     2.8956305769
C     2.4269842002     2.6600538244     2.4597147559
C     4.3206284376     -2.4267039321     0.7496772376
C     3.2849708635     -3.3014918404     1.1939908153
C     2.3932425549     -2.9051057476     2.2365535122
C     1.1521193018     -3.5611460017     2.2883747098
C     4.5600776939     -1.2474519444     1.4256475612


