94

 C     -4.4509379783     -0.7839882742     -1.5905204391
C     -4.7185424741     0.4039813142     -0.9765190343
C     -4.7698131055     0.4990457006     0.476375462
C     -4.4834469796     1.8563610705     0.8089005192
C     -3.7785895302     2.1513701744     1.9751219983
C     -3.586288707     -0.8186636919     -2.7359682938
C     -4.1498384117     2.5618831531     -0.4222265169
C     -2.8105746739     3.2260296183     1.9880321737
C     -2.5869984133     3.9628990033     0.8396123937
C     -3.2154086243     3.5697890915     -0.4102945033
C     -1.0780937711     -1.2720733211     -3.8795030426
C     -1.4713229395     0.0662439228     -3.6513068758
C     -2.7989481799     0.3074632033     -3.0978342989
C     -3.0933190941     1.5795315816     -2.4612853705
C     -4.14882634     1.6188954869     -1.5017066217
C     -2.2145183825     3.63749686     -1.4432014168
C     -2.0618423848     2.6106973668     -2.4075336679
C     -0.9610538941     0.6164917435     3.6381282239
C     -1.9787212375     1.5173263546     3.3065667737
C     -1.6875387619     2.8109635881     2.8115719493
C     -1.2607113635     4.4042909545     0.5484602726
C     1.0951189488     4.2779929155     0.877475165
C     -0.1794658969     4.1394390104     1.4340848758
C     -0.3561611733     3.2053184616     2.5402801181
C     2.2390992189     3.61661753     1.4494720325
C     2.0802634653     2.5857326005     2.4084318394
C     0.7346629907     2.3345556152     2.9439060287
C     0.4290752032     1.0469147065     3.5273573775
C     1.4745051782     0.0384049755     3.6389306148
C     1.0732712831     -1.2987039494     3.8601534065
C     1.2899279401     4.3994940076     -0.5381430542
C     -1.0666098414     4.2890195994     -0.8677791371
C     -0.4198775624     1.0678849027     -3.5345035677
C     -0.717763645     2.3542765024     -2.9443366712
C     0.3782461267     3.2163734299     -2.5361866452
C     0.2071302383     4.1457472421     -1.4251237182
C     -0.308404643     -1.7076451644     3.832948413
C     -1.3410535868     -0.7885303277     3.6536054807
C     -2.5808028576     -1.2394055532     3.0014625752
C     -0.3697279268     -3.0266532312     3.2583783262
C     -1.4822109229     -3.4048051875     2.539935355
C     -2.6170822099     -2.541498448     2.4746375824
C     0.9278188344     -3.4054317749     2.8149630968
C     -1.3254062109     -4.0744743741     1.2811614617
C     -0.0553380382     -4.2886181149     0.7169013512
C     1.1302930729     -3.9827720048     1.5362734447
C     3.0436364855     -2.1808310984     2.7499843792
C     1.8358100923     -2.4073031684     3.3464116573
C     3.3772597437     -2.8765987411     1.5249930635
C     2.4147637324     -3.7135044475     0.8908465641
C     2.4739815914     -3.756237933     -0.5180948772
C     3.5841564712     -0.8543493773     2.7189577376
C     4.1612912879     1.5862048146     1.4974130859
C     3.1055508699     1.5481486672     2.4567895199
C     2.8035630202     0.2745612731     3.0867032877
C     -3.5159384026     -0.2660527151     2.4575843689
C     -3.2686368265     1.0811217483     2.7714026633
C     -3.3033018482     -2.8322741736     1.2316122445
C     -4.1300598379     -1.8744542828     0.611041622
C     -4.3163524654     -0.5810808824     1.2717439131
C     -4.2399450965     -1.9796731192     -0.8017824175
C     -2.4935614141     -3.7439936731     0.4858939429
C     -2.4340647412     -3.6942635444     -0.9228051162
C     -3.3915207359     -2.848315129     -1.5525659832
C     -1.8472587981     -2.3787518545     -3.3715335374
C     -3.0537180444     -2.1481756229     -2.7739201834
C     1.3038799264     -4.0755660933     -1.3150539442
C     0.0325438998     -4.2850468857     -0.7518978961
C     -1.1512167339     -3.9678375269     -1.5696445429
C     -0.9452682495     -3.3850568962     -2.845312026
C     2.6047248826     -2.5441401576     -2.5005406343
C     1.4647091754     -3.4002876909     -2.5703184147
C     0.3545243375     -3.0117437079     -3.2867676189
C     2.5762488989     -1.2391254529     -3.0205688701
C     1.3392332508     -0.7774384327     -3.6703364924
C     0.3011076731     -1.6894096005     -3.8544528359
C     4.2308777112     -2.0091422069     0.7787312558
C     4.315679557     -0.6002325453     -1.2874767788
C     4.1216429498     -1.8958987723     -0.633519892
C     3.2891713425     -2.8455018743     -1.2590592315
C     3.2779553153     1.0760142642     -2.7784247932
C     3.5171854836     -0.2742371624     -2.4716385388
C     3.7942965797     2.1390205124     -1.9765846711
C     4.4973600464     1.8337164564     -0.8119312344
C     4.7755911264     0.4729975195     -0.4864942377
C     4.7237278146     0.3706593265     0.9658838207
C     4.4490155007     -0.8188727713     1.5736900961
C     2.8327338784     3.2195113612     -1.9838712307
C     2.613553891     3.9516985547     -0.8316176043
C     3.2395815227     3.5483160211     0.4162108056
C     4.1679634207     2.5347913414     0.422866847
C     0.9676486324     0.629735969     -3.6475308237
C     1.9906850757     1.5227233305     -3.3112902733
C     1.7072452681     2.8154781096     -2.8095516118


