94

 C     3.5681829729     1.6057326678     -2.469386284
C     4.4596964932     1.3528892017     -1.3891641676
C     4.8715201948     0.0049587785     -1.2265726181
C     2.8907895225     0.5363764417     -3.1278315716
C     3.1712978234     -0.8138524536     -2.8522322053
C     4.2838775576     -1.055747709     -1.9909535377
C     4.3652334568     2.2127931735     -0.2038717267
C     4.549435904     1.6137051472     1.0738084115
C     2.6702668193     2.7321237563     -2.4602694763
C     2.6736437756     3.6196592615     -1.4070631741
C     3.4969124705     3.3328018433     -0.24093293
C     1.4135152044     2.3385999291     -3.0456432049
C     -2.2579367465     2.4970451116     -2.2794293555
C     -3.3755623319     1.6562127245     -2.4213172596
C     -0.996637185     2.0468988125     -2.8417370944
C     0.1811445655     2.8577442718     -2.6160831225
C     0.1903531283     3.8888489881     -1.5763763191
C     1.4388828584     4.2287791538     -0.9952315594
C     2.2532534465     -3.0038119296     -2.2585661388
C     2.0738947399     -1.7734857457     -2.9396109676
C     -0.3948328389     -2.1677287342     -2.8720167907
C     0.7179589445     -1.3312822743     -3.2219105327
C     0.465713552     0.0932219765     -3.4545347284
C     1.5534160373     0.9693554157     -3.4518315197
C     -1.9765829449     -0.2304773106     -3.2045404947
C     -0.8525004437     0.6724936067     -3.2747354662
C     -3.242597354     0.308765009     -2.9129153654
C     1.5517900688     4.3969244911     0.4331737738
C     2.7325188275     3.7210159064     0.8992728122
C     2.6471880401     2.8733327237     2.0432052151
C     3.6189443789     1.8748105632     2.1308186885
C     0.4306770502     4.3966357179     1.2105789124
C     -1.0094693318     4.10029942     -0.7873348426
C     -2.2608223045     3.4876352225     -1.2016029234
C     -0.8510897716     4.4337117191     0.5859684105
C     0.334254176     3.5399105382     2.3927675198
C     1.3605862124     2.6433183082     2.7033111781
C     2.0258375334     0.2974253385     3.2207231372
C     3.3482416215     0.6438755728     2.837081423
C     4.2738530471     -0.3293774978     2.3477819007
C     3.9310505896     -1.6706284976     2.3515852334
C     -1.028193903     3.2021372481     2.569296126
C     -1.4441677219     1.9120953769     2.9792788863
C     -0.408060747     0.9326912     3.2593685798
C     0.986956464     1.3167148544     3.1817043037
C     -2.1672725763     -0.8672237414     3.0342962593
C     -0.7791408567     -0.4870786548     3.2609875794
C     0.2579490061     -1.4821451435     3.1454553649
C     1.6572049021     -1.1048863482     3.2012167332
C     2.6325498452     -2.0612416557     2.8114179981
C     -2.4430008185     -2.2134865419     2.6772379951
C     -1.3909792516     -3.1077115067     2.3599531838
C     -0.0620241198     -2.7887300725     2.5995619301
C     -3.1963290787     0.1225020468     2.7161946539
C     -2.819177499     1.5171415007     2.6541515522
C     -4.3711354065     -0.2935223048     2.0174329161
C     -2.9903815439     3.4843711881     1.1560117484
C     -1.7726748623     3.9213416352     1.5548017524
C     -3.6084323323     2.3795925937     1.8406491983
C     -3.3112431498     3.4110763499     -0.2521540207
C     5.2055064516     -0.5306958785     0.0853398736
C     4.8832169268     -1.9432985275     0.1022577014
C     4.9766718918     0.2453850219     1.2114173699
C     4.3068904277     -2.5205599804     1.2330308555
C     3.2713483973     -3.5143980148     1.0841517729
C     4.3565017995     -2.2699180598     -1.2104932767
C     3.3716020705     -3.2220664278     -1.3540381966
C     2.8626659779     -3.9196773849     -0.1894930582
C     0.924555149     -3.5638150539     1.8664668495
C     2.2633946792     -3.2585081928     2.0782657096
C     1.4915376909     -4.2249637575     -0.4245642832
C     0.5354135522     -4.1602663817     0.5956356601
C     -3.1402323866     -3.5634435422     0.8893527359
C     -1.7957608139     -3.900338347     1.1969286898
C     -0.8503179776     -4.1548404975     0.1965416908
C     -3.5360922716     -3.4254405449     -0.4470848004
C     -2.5228309487     -3.4726895619     -1.4632164475
C     -1.2088670475     -3.8403449471     -1.1781807899
C     -5.0571724777     -1.5898873395     0.163237129
C     -4.5176886358     -1.6400142786     1.518549803
C     -3.5814761265     -2.5824528325     1.861047228
C     -4.502463398     -2.4177702579     -0.8141808159
C     -4.6099676512     1.8763512926     0.9517647445
C     -5.340316501     -0.2071719337     -0.1290738568
C     -5.0210421923     0.5655744175     1.0621200617
C     -4.0604420444     -1.833465557     -2.0690770702
C     -4.2904714438     -0.4922536373     -2.329758614
C     -5.0126677177     0.3259400422     -1.3816604299
C     -4.4792906828     1.6660007136     -1.4851386938
C     -4.3825609076     2.468721096     -0.3626186449
C     1.1391850242     -3.7062022748     -1.7441285932
C     -0.1718389124     -3.3428909234     -2.0602147493
C     -2.7977598892     -2.4217643014     -2.4277012577
C     -1.7498161226     -1.6546008122     -2.9803182764


