94

 C     -4.0704742836     2.4452214691     0.2135895466
C     -3.238134378     2.7381072088     1.31945931
C     -2.028394747     3.5611532518     1.1067078044
C     -3.6456929778     2.7854375334     -1.1194515037
C     -2.5656340267     3.5938651762     -1.3045804773
C     -1.7903985232     4.0541053687     -0.1795429091
C     -3.8541375196     1.6572262484     -1.9951651964
C     -0.8617995424     3.4505619592     1.9913013348
C     -1.0093806314     2.63687679     3.1241717157
C     -0.4579403261     4.3285399644     -0.6630550545
C     0.6933342914     4.1652249201     0.1361209373
C     0.5041128644     3.7414151143     1.5167958737
C     1.6366489319     3.1885905531     2.2255370392
C     2.8928445027     3.0846521772     1.5471331312
C     -0.4377201422     3.9821107827     -2.0543472226
C     0.722352784     3.5701545918     -2.6698160322
C     1.9482967362     3.6305652283     -1.9599169701
C     1.9543533493     3.9161234278     -0.5657085461
C     3.0341367058     3.3806205841     0.1785384443
C     -1.6723193881     3.34738713     -2.4018180881
C     -1.70100576     2.1192651786     -3.1105795129
C     -2.823723308     1.2243246706     -2.8789130369
C     1.4312593538     2.283141461     3.3486749812
C     0.1118057005     2.0186877175     3.7568277284
C     3.8176138452     2.0003368698     1.830374591
C     3.556894145     1.0910214583     2.8136250635
C     2.3719742632     1.2529019578     3.6335036649
C     4.419314881     1.5502284343     0.5984514718
C     4.6031852381     0.1481519127     0.3427895486
C     4.5476282707     -0.2542728196     -1.00631982
C     2.8183308857     2.6183311013     -2.5280705306
C     3.8396837116     2.013735282     -1.7531362421
C     3.9941541648     2.4475141907     -0.4139697236
C     4.1707204028     0.666586912     -2.0484436702
C     1.9550939696     -0.0482857187     4.0263935364
C     0.580407016     -0.3834059827     4.1861460342
C     -0.2965287399     0.7120814134     4.1805985355
C     -1.6848876044     0.5465201937     3.8712169727
C     -2.2024244519     -0.7183169054     3.4774642084
C     -3.4230844344     -0.6740245723     2.774885769
C     2.8869695557     -0.9997392588     3.4441968105
C     0.0806532742     -1.6983680225     3.7483414852
C     -1.3087381812     -1.8532387013     3.3054993568
C     2.4258432201     -2.2391887823     3.0826434951
C     1.0393854824     -2.6098890373     3.2841627699
C     4.2337943831     -0.8328434679     1.3642923471
C     3.8351684352     -0.3198450175     2.626375633
C     2.8945430467     -2.844262293     1.8695526889
C     3.737685255     -2.1561167245     0.9673246812
C     -2.1498094357     1.7544117519     3.287353817
C     -3.9892995787     0.5718182727     2.3086287898
C     -3.2572059923     1.7828422599     2.4176246178
C     -4.7726702494     0.2833246688     1.1436239503
C     -4.802860533     1.2036520843     0.1049724382
C     -4.6653187038     -1.1326336288     0.865892333
C     -4.6718372174     0.735006626     -1.2654719522
C     -4.5573450469     -0.6154750913     -1.5319225242
C     -4.6071425255     -1.573219683     -0.4445732666
C     -3.7511538423     -2.6705384495     -0.7716990998
C     -1.883970847     -4.0703915282     -0.2728090213
C     -2.9708732447     -3.3273767687     0.2230692415
C     0.7195063057     -3.5812213712     2.2904843144
C     -0.6073496807     -3.7416982322     1.8275329924
C     -1.65801167     -2.8769855405     2.3465008006
C     -2.9013400522     -2.7684121052     1.5748378253
C     -3.789987782     -1.7163900839     1.8662611389
C     -0.725967447     -4.336771871     0.5459916038
C     -0.0629806456     -4.3016555534     -1.6523526245
C     -1.4593360966     -3.976753447     -1.6292497741
C     -1.9886896668     -2.9685185666     -2.4842525881
C     -3.195895236     -2.4075383789     -2.06964905
C     0.7513713224     -3.6874031102     -2.5612101291
C     1.8608751841     -3.7458067834     1.4282428939
C     1.712738356     -4.0946686821     0.075600364
C     0.4076062806     -4.5143102912     -0.3062467347
C     3.5021039316     -1.4459053537     -2.6844420976
C     4.1006751113     -1.5769231705     -1.3862259645
C     3.6206604424     -2.5157277164     -0.4499895495
C     2.4932211408     -2.2886601901     -3.0721112364
C     2.1220257047     -3.3752199219     -2.231047754
C     2.6124912683     -3.4829663963     -0.8996543368
C     2.047370387     1.8558287741     -3.4510733434
C     2.2723375834     0.4781232605     -3.6512116878
C     3.4403530804     -0.0612248546     -3.0469997222
C     -3.581378843     -1.0774459004     -2.4820957089
C     -2.6575590628     -0.205798202     -3.1093885858
C     -1.0944124233     -2.1655281619     -3.3139199477
C     -1.358967612     -0.7477047625     -3.5399746928
C     -0.2572941836     0.1439078702     -3.8193903022
C     -0.4358729217     1.5888109757     -3.6256894553
C     0.7114942154     2.3981652905     -3.5083577611
C     0.2287894356     -2.6301515036     -3.4268701562
C     1.3013414298     -1.7606679333     -3.7283458321
C     1.1059396607     -0.3768395308     -3.9038441963


