94

 C     3.950194202     1.7949237071     1.2428654727
C     4.726940126     0.9546603365     0.4082541192
C     4.9301130787     -0.4314886985     0.697630951
C     3.322723484     1.2017765111     2.4324729741
C     3.6147168018     -0.1381139512     2.7290786426
C     4.4225503117     -0.9635882038     1.8753965546
C     1.67508088     3.0086245258     2.4862700504
C     2.0699715766     1.7634924889     2.9675551367
C     1.0482117795     0.9084155128     3.6008716271
C     1.3745098248     -0.484437041     3.7830143917
C     2.6195181919     -0.9897067995     3.351849867
C     0.333955836     -1.4341378453     3.8812865865
C     0.3186592582     3.450018372     2.5612766125
C     -2.0106347962     2.8579629955     2.6663074046
C     -0.6923283884     2.6179594678     3.1099083004
C     -0.340731964     1.3061396456     3.6131234376
C     -1.4085874469     0.2902518158     3.6940035232
C     -1.0316475375     -1.0444167518     3.8425127599
C     4.2459952047     -2.4411182881     -0.5285612092
C     3.7455052825     -3.0104549788     0.7056092732
C     4.8293562113     -1.1861236388     -0.5391556164
C     3.8483637365     -2.2909017706     1.8828469243
C     2.7398687314     -2.3006950956     2.7961124915
C     1.585003706     -3.1040829644     2.5491593495
C     0.4367531174     -2.7101448422     3.2401339127
C     1.7963469368     -2.1057975622     -3.2662019926
C     3.0277633176     -1.8904019495     -2.6216521249
C     3.3497356901     -2.8111046511     -1.5880190567
C     2.334757141     -3.6668960423     -1.0287253092
C     -0.100745923     -4.0117036925     -0.7290429786
C     1.0446918749     -3.7639337201     -1.5872282703
C     0.8682495073     -3.0796997271     -2.8226516714
C     -2.5367735591     -3.739654166     -0.4166727365
C     -1.4388081797     -3.7879016907     -1.2876727446
C     1.4343711823     -3.8003777954     1.2622758638
C     2.5323679662     -3.7449070267     0.391747593
C     -0.8722511201     -3.1047026828     2.803623599
C     -1.0491141064     -3.7775840218     1.5620394026
C     0.0961699474     -4.0182624539     0.7016373739
C     -2.3391173599     -3.6746721168     1.0044468455
C     3.5677883657     -0.5374666942     -2.607782766
C     4.5291423749     -0.2474746664     -1.6056289816
C     4.6274168733     1.0656773648     -1.0394871827
C     2.7541135702     0.5653712533     -3.1464328663
C     3.0286977649     1.8622289271     -2.693977426
C     3.9318411019     2.1033127524     -1.6045721465
C     1.0289333217     -1.0101676279     -3.8427944328
C     1.406702511     0.322863127     -3.6821736
C     0.3394758581     1.33863671     -3.5920686816
C     0.6918874706     2.6456115542     -3.0769612188
C     2.0103417693     2.880755765     -2.6312047382
C     -0.3185842171     3.4732785704     -2.5207880485
C     -0.3369144558     -1.3986683372     -3.8850980304
C     -2.6222031563     -0.9576399156     -3.3516351873
C     -1.3768786374     -0.4492540269     -3.7782028417
C     -1.0497164604     0.9416826738     -3.5834233111
C     -2.070948698     1.7916085867     -2.9423643695
C     -1.6752807745     3.0320684516     -2.4497894734
C     -1.589006891     -3.0798544069     -2.5681781707
C     -0.4405093605     -2.6803767769     -3.2555541186
C     -2.7433706751     -2.2735409433     -2.8078232418
C     2.2880509732     3.6195271619     1.3154455752
C     3.3522560187     2.979260301     0.6305758232
C     3.3879553831     3.1435011306     -0.7776810348
C     2.2664645937     3.7033756757     -1.4796697492
C     -0.0701381851     4.3071218713     -1.3892585869
C     1.2081359559     4.3438619892     -0.78559948
C     1.2843168409     4.3548216068     0.645753536
C     -1.2836815004     4.3612563331     -0.5971260458
C     -1.2075143263     4.3372653772     0.834066647
C     0.0707344115     4.2942569167     1.4373665389
C     -2.2662450238     3.6911649217     1.5222957253
C     -2.2878712408     3.6326976152     -1.2734647006
C     -3.3524801464     2.9869076888     -0.5944356801
C     -3.3880831094     3.1383826057     0.8152544895
C     -4.4252261391     -0.9438053308     -1.8749995361
C     -3.6168776563     -0.1111210909     -2.721157108
C     -3.3240505622     1.2258359014     -2.412402207
C     -4.932459582     -0.4221060561     -0.6924506802
C     -4.7284221471     0.9612312802     -0.390501197
C     -3.951151151     1.8085512236     -1.2174571152
C     -4.2495938566     -2.4432124981     0.5154447824
C     -3.7494550162     -3.0016295755     -0.723846902
C     -3.8518639198     -2.2713535499     -1.8945007822
C     -4.832175383     -1.1880024497     0.5374330024
C     -1.7997395663     -2.1342888514     3.2559993421
C     -3.0310225331     -1.9122789653     2.6134404161
C     -3.3535688649     -2.8233588232     1.5714967129
C     -3.9326146474     2.0910679388     1.6326668462
C     -3.029621518     1.8395398126     2.7198349383
C     -2.7558436039     0.5384594019     3.1604916153
C     -4.6288345068     1.0590403674     1.0581882754
C     -4.531377458     -0.2592612729     1.6123821625
C     -3.5702047116     -0.5589362081     2.6118578796


