94

 C     -1.9554062842     -3.5756968451     1.7762344198
C     -2.5680482349     -2.4373335985     2.3285815398
C     -3.719113182     -1.854717546     1.6227459777
C     -4.0796867681     -0.4683397165     1.875095098
C     -4.6620654488     0.322095465     0.8388409078
C     -3.3651747201     0.2338520813     2.8686421746
C     -0.5807992933     -3.8864785512     2.0087378773
C     0.2630903421     -3.0638500595     2.7833294316
C     -0.3259979741     -1.8912152986     3.4029178999
C     -1.7430591731     -1.6312367611     3.2190097426
C     -2.2223363285     -0.3406228208     3.5358268043
C     1.9355104282     -0.9018493153     3.5771077986
C     0.5498479696     -0.7853324057     3.7865955475
C     2.5172678322     -2.0698950335     2.9342181734
C     1.6988039962     -3.1252302608     2.5020162859
C     2.1835992111     -3.840898317     1.3637437691
C     -1.9682604378     1.9525435687     3.5195030949
C     -3.161882699     1.6502530033     2.786096314
C     -3.4850078131     2.373463035     1.6027025444
C     -4.2744582248     1.6908048496     0.6562471168
C     -1.1871038382     3.0182944464     3.1431041016
C     0.04515712     0.564996003     3.9439027024
C     -1.352348919     0.7231379284     3.9325658308
C     0.2471104205     2.9241899351     3.2254602286
C     0.8834957217     1.7208302851     3.6066632509
C     -1.5416007194     3.8184669126     1.9927267304
C     -2.595092292     3.4332551484     1.1361225889
C     -3.1116599575     2.7728584528     -1.2632116018
C     -4.1440321498     1.9440909183     -0.7688027601
C     -4.5643713852     0.7665643087     -1.4584590832
C     -3.9095278163     0.3817303223     -2.6283550121
C     -0.3107006638     4.3535128989     1.4880469952
C     -0.1795964073     4.6221387389     0.1484212396
C     -1.2406704738     4.2491886931     -0.7586198936
C     -2.4158827931     3.6281621889     -0.3103079797
C     -2.4460019936     2.3762600481     -2.5048080225
C     -2.8425779701     1.1749708739     -3.1306720641
C     2.7687038132     0.2230563613     3.3025386911
C     2.2377644789     1.5311534501     3.1528014938
C     2.0286469797     3.482841373     1.5768627921
C     0.8026930183     3.77493033     2.2110914902
C     -4.6115917236     -1.5693192137     -0.6970440097
C     -3.9529253263     -1.9698861905     -1.9366644339
C     -4.8951315744     -0.2368548921     -0.4668888547
C     -3.5851012465     -1.0119928385     -2.8578486096
C     -2.2785564016     -1.0777171236     -3.461113514
C     1.0512410816     -2.7204266742     -2.8032812718
C     2.4110688309     -2.3124140047     -2.7934428245
C     0.0675044645     -1.8002940725     -3.35437667
C     -1.3426105185     -2.0894707664     -3.1501344909
C     -1.7623184136     -3.1487627575     -2.2291466797
C     -3.058472092     -3.0563844878     -1.655414513
C     -0.5114642461     0.6063696056     -3.805450469
C     -1.8560213479     0.2716785717     -3.697176222
C     2.2087780881     1.3011274841     -3.5153167823
C     1.8662401228     -0.0753743556     -3.6554253237
C     0.4747053922     -0.4643315088     -3.7500217213
C     2.8070647285     -1.0069017836     -3.1825148535
C     -0.1616929816     1.9941093064     -3.5239574337
C     -0.6131255495     3.8966953091     -2.0135774863
C     -1.1175952815     2.8549113072     -2.8135648036
C     1.1990228238     2.3187851735     -3.4670442713
C     -2.2782645751     -4.0157196038     0.4377014837
C     -4.0842276762     -2.3953678487     0.3619838274
C     -3.2728294547     -3.3995799832     -0.2682970835
C     -0.7510506139     -3.9210286669     -1.5198627013
C     0.6502442397     -3.7510651932     -1.8537998207
C     -1.0778134566     -4.4163328225     -0.225148903
C     -0.0831760828     -4.5227810426     0.8011795334
C     1.2362905002     -4.459320208     0.4576501388
C     1.616620765     -4.1899372259     -0.8958555766
C     4.219944861     -1.6275226516     -1.4381404327
C     3.3369898888     -2.7316736014     -1.7690465248
C     2.9251015015     -3.6103893998     -0.8098072009
C     4.7775731719     0.0315056461     0.2338420319
C     4.5573530392     -1.3383796374     -0.0813652945
C     3.3022201917     1.7182883171     -2.6887063046
C     4.5690618341     1.0701403388     -0.7159254704
C     4.1276030491     0.7715763954     -2.0335453769
C     3.9461602729     -0.5940804878     -2.3684237086
C     0.799493349     4.1098159574     -1.8698635163
C     4.041080555     2.236998987     -0.0175893643
C     3.1860115779     3.1656358527     -0.6554463363
C     2.9279005252     2.9514080514     -2.0425893266
C     1.6884907721     3.3679333875     -2.6170518395
C     3.848987771     -0.2478181233     2.4848997514
C     4.3978938525     0.571612387     1.5301018922
C     3.8952318409     1.9070211549     1.3610914236
C     2.8172157957     2.4080400908     2.1456801265
C     2.1975296916     3.8654287545     0.1665730642
C     1.0908965793     4.4405914181     -0.4990895653
C     3.2782511929     -3.3723301254     0.592130448
C     4.0257452848     -2.2253132895     0.9677620245
C     3.6848135567     -1.6659980061     2.2280396025


