94

 C     4.7126543762     1.5648154494     -0.6922993599
C     3.8955469973     2.5219352987     -1.4208492932
C     4.7115130043     1.5711346513     0.6973595306
C     3.2109007362     3.509302999     -0.7432695294
C     1.9233279948     3.9059491205     -1.1929991621
C     4.1554487573     -2.0320009435     -1.3976265875
C     4.7345101258     -0.9301617923     -0.7204989367
C     4.6688725361     0.3169035422     -1.4038019396
C     3.7989919283     0.5014918109     -2.5331636543
C     3.0745955849     -0.5574011394     -3.0955944788
C     3.3882251598     -1.8562831547     -2.5869549852
C     1.2204584198     -2.6825504803     -3.2647850252
C     2.3931630733     -2.8962757354     -2.610232051
C     -0.8719864311     4.033594274     -1.1906409312
C     -0.2375736175     3.2736457359     -2.2272189929
C     1.2202891209     3.2071933028     -2.2208448235
C     1.900377225     2.0964000844     -2.8674521475
C     3.2500729762     1.8363767903     -2.5021170639
C     -0.3228613251     1.1511311261     -3.540936946
C     1.1201272023     1.0311457527     -3.4840207094
C     1.7534574152     -0.2789117343     -3.659731338
C     0.9332235582     -1.4027236154     -3.883962536
C     4.7333050382     -0.9234803293     0.7482866282
C     4.6665602928     0.3297461054     1.4201124144
C     3.5597488544     -3.1416643119     -0.6629250615
C     3.5586223665     -3.1354223777     0.7089044086
C     4.1531257983     -2.0191192635     1.4344596265
C     2.3976989921     -3.6136724221     -1.3637470801
C     2.3888520451     -2.8723441802     2.6519811911
C     3.3839584054     -1.8326005442     2.6208815732
C     3.0695042071     -0.5291459166     3.1171749798
C     3.7948295146     0.52459203     2.5463221202
C     1.2150778943     -2.6526835671     3.3026418275
C     -0.0036613712     -3.2267026605     -2.7423404092
C     -0.0798024428     -3.7463016355     -1.4196619804
C     1.1790734884     -3.9354339149     -0.7015997841
C     1.1778851363     -3.9288251501     0.750886355
C     2.3954202405     -3.6010439209     1.4120808345
C     -0.008185197     -3.2015725469     2.7831539545
C     -0.0821683121     -3.7331822216     1.4651353685
C     0.9268403603     -1.3672841157     3.9096875539
C     1.7474480758     -0.2455503921     3.6765893553
C     1.8956796736     2.1224553617     2.862971077
C     3.2459722811     1.8591337182     2.5022298383
C     3.8932240721     2.5348366205     1.4158329272
C     3.2096932159     3.5159925085     0.7281753406
C     -0.4748202966     -1.250775174     3.9595587256
C     -2.4920653403     -0.0576557291     3.5755442798
C     -1.1116123676     0.0044978488     3.864312157
C     -0.328665265     1.1833342935     3.5413753004
C     1.1144159773     1.0628523481     3.4879282514
C     -1.022817666     2.3012220495     2.8959417176
C     1.2166578516     3.2273159513     2.2051708076
C     1.9213889188     3.9167011311     1.1721630195
C     -2.3199437357     -2.3838248759     2.7480958522
C     -1.0570469924     -2.4213383196     3.3344706598
C     -3.1191731925     -1.2667935943     3.107901174
C     -2.4951834717     -3.0445807971     1.4581773652
C     -3.6457609813     -2.671735973     0.7284578377
C     -2.4928215653     -3.0576815588     -1.4229220767
C     -1.3417267596     -3.5968842156     -0.7064097483
C     -1.3429183015     -3.5902718004     0.7484860739
C     -3.64459203     -2.678224208     -0.6985140156
C     -3.1850372178     1.0603980618     3.0226197647
C     -2.4575004281     2.1953027996     2.5938954871
C     -0.2412053546     3.2938117308     2.2085439389
C     -0.8739157249     4.0443030502     1.1640616869
C     -0.1295619997     4.4103800082     -0.0143688018
C     1.2164410854     4.3509346971     -0.0129932439
C     -4.7935241085     1.1892306243     -1.1718457771
C     -4.1232286136     2.3697295426     -0.7383525882
C     -3.0219382828     2.8917694172     -1.4685909187
C     -2.1711533143     3.7409331205     -0.7432757891
C     -4.3280249205     0.5373476423     -2.306273525
C     -2.1723497958     3.7475745372     0.7172500374
C     -3.024330353     2.9050345012     1.4488609916
C     -4.1244232598     2.3763691719     0.7215981059
C     -4.3318113165     0.558323184     2.3057896925
C     -5.2033333958     0.4283544155     -0.0004171461
C     -4.7954385438     1.1998488808     1.1647114519
C     -4.2434602534     -0.91179465     -2.3071158818
C     -4.5427707255     -1.6353358445     -1.1608055178
C     -5.0711939909     -0.9542082988     0.0059764717
C     -4.5446874183     -1.6246937542     1.1797727144
C     -4.2472470466     -0.8907540496     2.3199405181
C     -1.0516119549     -2.4515221499     -3.3024493891
C     -3.1141004922     -1.2949785754     -3.0897737017
C     -2.3154662936     -2.4086844152     -2.7185116835
C     -2.4532390751     2.1716623276     -2.6061916185
C     -1.0180619222     2.2748447814     -2.9068433798
C     -3.1800758398     1.0328923089     -3.0257568271
C     -2.4862140715     -0.0901374037     -3.5673591747
C     -1.1052874443     -0.0305996008     -3.8544162402
C     -0.4683501576     -1.2866816537     -3.9371991361


