94

 C     -1.1153466491     1.9743230034     -3.6443264697
C     -2.3496098799     2.0621609566     -2.9891567161
C     -3.1557177875     0.8879287255     -3.0700115022
C     -4.1712117055     0.613781574     -2.0835324033
C     -4.3637061944     1.4933100921     -1.0552230395
C     -0.0310895115     2.8288544571     -3.3044459384
C     -0.0707458597     3.6522571342     -2.1600809255
C     -1.3190249598     3.6970289333     -1.3850181468
C     -2.467553834     2.9652559456     -1.8543975542
C     -3.5364408693     2.6844631019     -0.9331276182
C     -0.0011114923     4.3826514824     0.5909030923
C     -1.2602615374     4.0765707685     0.0313428997
C     1.2317255895     4.2846345404     -0.1633816012
C     1.2190697168     3.9529084929     -1.5299314215
C     2.4228747041     3.371826055     -2.0263873342
C     -4.3230073829     -0.8124612991     1.8392425208
C     -4.7420620942     -0.4080112025     0.5450634072
C     -4.6941843025     0.9999771768     0.2731931742
C     -4.1476145637     1.9212304964     1.1914713765
C     -2.5702710004     2.2204016579     3.0125283671
C     -3.6480704518     1.4937131753     2.4497557959
C     -3.7333785559     0.1122795699     2.751763382
C     -2.309254389     3.6450054798     0.9630010292
C     -3.43668722     2.9685494754     0.4343272091
C     -1.9877752941     3.3713575277     2.3210399243
C     -4.5377863669     -1.3446843277     -0.5717406124
C     -4.2629863177     -0.8184790911     -1.863511251
C     -3.6599858818     -2.086196164     2.0484960645
C     -3.540848578     -2.9910722534     1.0275615341
C     -3.9868118338     -2.6248714898     -0.3133814444
C     -2.5643556611     -1.9035571068     2.9657643841
C     2.4896401278     -3.6701380513     1.2312165208
C     0.0551156919     -4.0424210191     1.3108338832
C     -1.3297930318     -2.5760487522     2.8201936793
C     -1.2444596933     -3.6184030598     1.8018896754
C     -2.369345311     -3.8109388682     0.9474307974
C     1.2648377035     -3.5360336923     1.9392799096
C     -1.534312408     1.567377057     3.7208018305
C     -1.480068486     0.1437891792     3.8092889492
C     -2.6370137979     -0.553687799     3.4268493082
C     1.1648277748     -2.4663686154     2.9352766203
C     -0.1978573442     -0.5287822141     3.7530487495
C     -0.1222999787     -1.9008504191     3.2889882871
C     -2.1899593347     -4.0812439742     -0.4540726576
C     -3.0897155712     -3.2560285499     -1.2254346813
C     -2.6147106235     -2.5965394217     -2.3989598715
C     -3.296163243     -1.410565594     -2.7215165622
C     -0.9488451267     -4.3643614195     -0.9426022815
C     1.3237901208     -4.27453383     -0.8091271153
C     0.1453039218     -4.5035887283     -0.0329295625
C     2.4830058687     -3.9253798365     -0.1903689563
C     -0.4612978905     -3.7446066591     -2.1678616437
C     -1.2131982772     -2.7657997697     -2.8274004987
C     -0.4802268775     -1.6859760741     -3.4724864645
C     -1.2472006857     -0.5029238744     -3.8341718788
C     -2.6094091997     -0.3610271339     -3.4549070223
C     -0.5722653389     0.7026047804     -4.0700364596
C     0.9576926376     -3.6687467488     -2.0713583849
C     3.0124123594     -2.300538881     -2.0000335444
C     1.7016254799     -2.5920647027     -2.6018430901
C     0.9681079393     -1.5872743376     -3.3510767277
C     4.5716961779     -0.5384730017     -1.2371359998
C     3.6312071627     -1.0018091019     -2.2067868934
C     2.95538658     -0.0208011054     -3.0431216668
C     1.6438355485     -0.3184199909     -3.6237699266
C     0.8509096429     0.7766069537     -4.0364264172
C     3.4090455892     -3.0444526264     -0.8531678066
C     1.1803986452     2.1348877579     -3.7000769775
C     2.3754057949     2.4082343874     -3.1069486801
C     3.3086568559     1.3468227035     -2.8655566787
C     4.1732612325     -0.5722020336     2.2796446634
C     4.8229529731     -0.2686815697     1.0826443101
C     4.6998017454     1.034243085     0.5219675386
C     4.6882415175     0.8625239411     -0.9273955516
C     4.0841979758     1.7799565802     -1.7369710967
C     3.5545200765     -1.8685797685     2.4659512013
C     3.6183651859     -2.8204413925     1.4688269552
C     4.2207847403     -2.4755955006     0.1842718877
C     4.7957011517     -1.2389957955     -0.0032896699
C     0.9946199714     0.3090764899     3.7384960703
C     2.2193000959     -0.296501465     3.505801842
C     2.3199497082     -1.6869686713     3.1850804339
C     1.6516493804     3.5741317432     2.0077385562
C     0.3078476083     4.0535902598     1.9471775058
C     -0.6571551178     3.5029204595     2.7771822381
C     1.9952206628     2.4339989623     2.7508018066
C     0.9266686812     1.7562397241     3.5140575394
C     -0.3274489086     2.3561219732     3.5757210562
C     3.4757532518     2.9647391145     -1.1605306151
C     3.9059110853     2.0398984     1.1264074581
C     3.3585487156     3.0791924143     0.2541606409
C     2.2625420225     3.8294710975     0.7113671165
C     3.3439473133     0.4095719338     2.8935310557
C     3.1941196916     1.703928164     2.3605871139


