94

 C     -2.4802404096     3.6306971298     -1.1926071928
C     -3.0441740296     2.5996371875     -1.9649117351
C     -4.1160540682     1.8686706964     -1.3577872905
C     -4.4119196933     0.5323575205     -1.7607622631
C     -3.6644611629     -0.0503578117     -2.7674787636
C     -1.1658801304     4.0919204712     -1.4317161713
C     -0.2949046055     3.4798199407     -2.3639014746
C     -0.8060221486     2.3349247654     -3.1115389398
C     -2.1910464138     1.9557405007     -2.9579749601
C     -2.5688984481     0.6504972494     -3.3732519416
C     1.519262549     1.6162142199     -3.4993607965
C     0.1470456162     1.3446045355     -3.6103754848
C     2.0249385942     2.7579525325     -2.7780389811
C     1.1376282108     3.646857453     -2.1400499488
C     1.6046221601     4.2296325497     -0.9178641187
C     -2.9203488302     -3.3814506003     -1.3466301443
C     -3.7460218141     -2.2595081559     -1.6087883621
C     -3.3581832209     -1.4648831262     -2.7169631078
C     -2.088741432     -1.6379665368     -3.345237147
C     0.2447133082     -2.4334307716     -3.1082105566
C     -1.1902839928     -2.6562347339     -2.9775665468
C     -1.6893626861     -3.5909135069     -2.029021968
C     2.4947688519     -2.9210903316     -2.2415864321
C     1.1438611295     -3.3015071256     -2.3609916187
C     -0.2380799324     -0.054622782     -3.7944003302
C     -1.5994852324     -0.3336132034     -3.7361098724
C     2.4913593739     0.5706668974     -3.428331401
C     2.1073886717     -0.8033720753     -3.4269810458
C     0.7158156449     -1.1516148695     -3.5838454999
C     2.9787902857     -1.7011979412     -2.7757712746
C     -4.4560845848     -1.6147877502     -0.484627298
C     -4.80853214     -0.2472726855     -0.5998158694
C     -2.7164543863     -3.8609632647     0.0139515345
C     -3.2848176039     -3.1903179979     1.0663980422
C     -4.2031007687     -2.0979894668     0.8359905069
C     -1.3882522029     -4.375747288     0.1453381019
C     -0.6203807106     -4.1561662203     1.3302354739
C     0.7660511288     -4.2694191301     1.1664667797
C     0.6120361852     -4.1655706114     -1.3055443304
C     -0.7743026901     -4.2767259734     -1.1412646134
C     1.3797464587     -4.3778298851     -0.1190360592
C     -4.0668203504     -1.2033454761     1.9333256025
C     -4.3331381502     0.184502304     1.8023574936
C     -4.7671976801     0.6412656336     0.5204604068
C     -3.5861042722     1.0655208344     2.631385095
C     -2.9845094702     -1.6793368773     2.7838303243
C     -0.7207439281     -1.127116319     3.588424934
C     -2.112134455     -0.7782628981     3.4291238338
C     -2.4946069814     0.5959492061     3.4210409002
C     1.5950212954     -0.310815459     3.7362150802
C     0.234517759     -0.0297924879     3.7920376235
C     -1.151471784     -3.2847185268     2.3797792401
C     -2.5016036507     -2.9039548625     2.2578357721
C     1.681762744     -3.5786410657     2.0500724283
C     1.1833858689     -2.6373841678     2.9927752433
C     -0.251127665     -2.412168751     3.1216844892
C     2.0828069152     -1.6177444655     3.3542109198
C     -3.2794936068     2.4094196522     2.1959131568
C     -3.6445763539     2.8360947108     0.8868785903
C     -4.3777884712     1.9521364808     0.0514975004
C     -2.7619611768     3.7437745289     0.242181723
C     -2.024027986     2.7789106759     2.7569707095
C     -1.1347798672     3.6627470436     2.1128919441
C     -1.600481715     4.2367868004     0.8868233522
C     0.6663799077     4.5828437826     0.1164333615
C     -0.6616658957     4.5815782328     -0.1496534352
C     -0.1491547832     1.369278056     3.5984579835
C     -1.5199773661     1.6420446617     3.4857612453
C     2.5665782165     0.6702893437     3.3662834256
C     2.1907481591     1.973140746     2.9423093826
C     0.8058727809     2.3554363111     3.0927065433
C     0.2969580726     3.495449736     2.338310486
C     1.1697689853     4.1009039187     1.4014939205
C     3.6609435997     -0.0354869038     2.7664983369
C     4.4095430997     0.5399975263     1.7554228462
C     4.1158193856     1.8729789686     1.3439047023
C     3.0449006818     2.6090861172     1.9453482031
C     2.4826164827     3.6363968411     1.1658943984
C     2.9126282956     -3.3746144702     1.366706001
C     3.7394750812     -2.2517131805     1.621858541
C     3.3529169362     -1.4498856532     2.7247466659
C     4.1968396224     -2.106919378     -0.8248550451
C     3.2774695957     -3.1999212008     -1.0477636459
C     2.7082581473     -3.8625617286     0.0089664921
C     4.8047328739     -0.2482189374     0.5995772646
C     4.4505080402     -1.6148824132     0.4933673547
C     3.5848801553     1.0445982569     -2.6410727231
C     4.7650109117     0.6335236036     -0.5274081226
C     4.3301274987     0.1684063725     -1.8063617533
C     4.0617335934     -1.2202267855     -1.927570173
C     2.7651383704     3.7395825687     -0.2702035995
C     4.3778929506     1.9466818458     -0.0677310693
C     3.6462361513     2.8261528699     -0.9087487306
C     3.2808586009     2.3910845741     -2.2152721184


