94

 C     -1.1409337384     0.65217762     -3.6259238254
C     -2.1095196765     1.5551672282     -3.2113277573
C     -1.7598706164     2.8344135197     -2.6806796622
C     -1.2317506615     4.4177659352     -0.4448202536
C     -0.1374325266     4.049944011     -1.2712653739
C     -0.409629775     3.1809118272     -2.4187568435
C     2.0077883424     2.5295839021     -2.5156330944
C     0.6233917642     2.3249198116     -2.9579329441
C     0.2487194483     1.0861052164     -3.6087840557
C     2.9777968933     1.5701052917     -2.8760670769
C     2.5886562836     0.316888817     -3.471690487
C     1.2550009997     0.0726292243     -3.835647821
C     0.878438583     -1.2874626724     -3.9063595142
C     2.2897373249     3.376851103     -1.3558611949
C     1.1946907011     4.065742439     -0.6865746482
C     3.468710022     3.1118681669     -0.6033257356
C     1.3053491421     4.2983619071     0.7097211864
C     -0.5053029444     -1.6991797893     -3.8337298229
C     -1.5191129455     -0.7646183044     -3.6259386423
C     -2.7405017205     -1.2021565832     -2.918777433
C     -0.5389838758     -3.0039171916     -3.242425948
C     -1.6671272785     -3.3992178042     -2.5390778144
C     -2.7879960728     -2.5128896923     -2.4268202867
C     -0.1629631196     -4.483562226     0.6307293267
C     -1.5212707914     -4.1308451853     -1.3359649251
C     -0.2313478752     -4.3559756835     -0.7846753334
C     3.4286698913     -0.7256401395     -2.9566425538
C     2.8863849502     -2.0055822809     -2.6602794668
C     1.6627017721     -2.2948357259     -3.2830907032
C     0.7683597097     -3.3083610002     -2.7635113151
C     2.1890195608     -3.5368974848     -0.752922243
C     0.9705526504     -3.8901253653     -1.4884982674
C     -3.6366883095     -0.2166688324     -2.3214461139
C     -3.3823446161     1.1316854077     -2.6272467654
C     -3.4576587097     -2.8266666055     -1.1692007772
C     -4.2026988014     -1.8400778953     -0.4709361582
C     -4.38674119     -0.5330208358     -1.1037041615
C     -4.2176546132     -1.9414307477     0.9459738309
C     -2.6803666185     -3.8018070429     -0.49833887
C     -1.3262745572     -4.1704872669     1.4818723266
C     -2.5694665045     -3.7920074506     0.9166771821
C     -3.345000854     -2.8444324637     1.6301247238
C     -4.3119212721     -0.7518993251     1.7504992889
C     -4.642075528     0.4422185925     1.1734143447
C     -4.7807799267     0.5453244112     -0.2730405036
C     -4.5047566691     1.9040982789     -0.6104772303
C     -3.8398439667     2.1994625795     -1.799493899
C     -3.2030940033     3.6269767157     0.5576498408
C     -4.1223347797     2.6070786547     0.6048830338
C     -4.0601313305     1.6488606085     1.6795678151
C     -3.3287609996     -0.8118714022     2.7966998922
C     -2.5511543352     0.3166645647     3.1378956475
C     -2.9572090483     1.6057680814     2.586999081
C     -0.640393677     2.4699777847     3.0457137175
C     -1.9957572362     2.6893264079     2.5387448214
C     -2.2079973619     3.7296937037     1.5876659904
C     0.3676433563     3.3695173627     2.6471382443
C     0.1466067438     4.2797444805     1.5507019946
C     -1.0899906819     4.4039330175     0.9937889653
C     1.2223116388     0.8696963802     3.5764453571
C     0.6780455836     -1.5091092033     3.8380198771
C     -0.7114979123     -1.2895429469     3.7261091607
C     -1.1759965142     0.0821982421     3.5975331446
C     -0.2114880157     1.160587484     3.5337472754
C     1.6149682345     -0.4669776053     3.7478018844
C     -2.7907787326     -2.1473900143     2.7676570051
C     -0.8525017503     -3.5673962678     2.6651983922
C     -1.5065408859     -2.4179709386     3.2379661326
C     -2.5772855788     3.9982318005     -0.7078856344
C     -2.8504894969     3.2572346253     -1.8391960397
C     2.8450120992     -0.9908840688     3.1363848971
C     4.456032563     -0.7769132569     1.3726472196
C     3.7423749163     -0.1602463213     2.437602303
C     3.4790980258     1.2686383461     2.4207498003
C     2.2275403936     1.7738590972     3.0192416525
C     1.7656122625     3.0240466429     2.6106822458
C     0.5826952565     -3.638397706     2.6186893414
C     4.0461548738     -2.0589183194     0.8557551181
C     3.0704340336     -2.8362623462     1.4934769195
C     2.610462297     -2.3287179528     2.7534832936
C     1.3142462029     -2.6873864074     3.255394809
C     4.3996663645     -0.1103184275     -2.101262378
C     4.7695865203     -0.7647814019     -0.939558922
C     4.1565299686     -2.0334041008     -0.5788623519
C     3.1901672846     -2.6612913882     -1.3882116122
C     2.1880732659     -3.6637204585     0.6800372044
C     1.0076090259     -4.1633072799     1.3246735988
C     4.776254548     1.3733276523     0.2815024337
C     4.3747813394     2.0542786973     -0.9385026339
C     4.1554844357     1.3180531328     -2.0895523221
C     4.95749799     0.0001956073     0.2745264185
C     2.3511431702     3.6979967377     1.4773406983
C     4.0916254033     2.0147108104     1.3859302688
C     3.4404522585     3.1715614807     0.8428237103


