94

 C     -2.5726571282     2.2677084306     2.7216714081
C     -1.388649126     2.1584827321     3.4742422004
C     -4.2802301747     2.0814965877     0.4683009926
C     -3.3755494334     3.1133247097     0.5361726153
C     -2.5607987061     3.2640988759     1.7090314469
C     -4.5199227153     1.423574254     -0.7923149042
C     -2.608246284     3.4920327986     -0.6124396214
C     -2.7123093764     2.7846571236     -1.8201885869
C     -3.7081090951     1.7039156421     -1.9191096349
C     -2.3266438751     0.6725942699     -3.6780536147
C     -3.4538050655     0.5973025198     -2.8322969596
C     -3.8881290574     -0.7117494997     -2.5095285859
C     -1.3468016828     3.9124308975     1.3124081779
C     -0.1494759517     3.7562697102     2.0305642521
C     -0.2513941795     2.969991843     3.2227489047
C     0.8883652534     2.2580864137     3.7166261892
C     2.1152923022     2.4665016889     3.162102805
C     -1.3431431563     4.0087346257     -0.118970758
C     -0.1556854862     3.9301681122     -0.8603355311
C     1.122148681     3.8844217902     -0.1429398213
C     1.1094075478     3.8218707545     1.3088228447
C     2.2527601541     3.2835376415     1.9639567289
C     2.176998259     3.1231029724     -2.221246752
C     2.3178829182     3.4594027039     -0.8507335305
C     -1.4633276156     1.8242537377     -3.687271695
C     -1.5432325878     2.8116482594     -2.68422954
C     -0.289293679     3.4362088643     -2.2247297759
C     0.9020658886     3.1066849985     -2.8850323237
C     3.4130375484     -0.9739931925     2.8656417974
C     2.6909942634     0.0698969427     3.4786506649
C     3.0728025212     1.3973760625     3.1212087831
C     3.9136386288     1.644284137     1.994748594
C     4.7755278304     0.7530209543     -0.0834699755
C     4.5573556105     0.5842848312     1.311047453
C     4.3534748101     -0.7334002424     1.8099067361
C     3.4558050134     2.8772757813     -0.1398936905
C     3.3786824398     2.7918673924     1.270091142
C     4.2840125069     1.911306938     -0.7803584708
C     1.3051989077     -0.193988582     3.9148933641
C     0.4791739849     0.9223952497     4.1313847555
C     -0.93057283     0.8688698977     3.9873522801
C     2.8131457223     -2.2590289009     2.6517655988
C     1.4648938619     -2.5268697213     3.0224790797
C     0.65342343     -1.4625410482     3.6357670001
C     -0.7905259884     -1.5236055784     3.53781306
C     -1.6012681754     -0.3180235368     3.6753152476
C     -1.4053561991     -2.6593433104     2.8604552224
C     -2.7214601136     -2.5602050562     2.3628903793
C     0.8275765091     -3.5717306043     2.3213826363
C     -0.5907259199     -3.6158387091     2.2224056436
C     4.3203916693     -1.8654307567     0.9255188007
C     3.3920401079     -2.8181562354     1.4678128454
C     -3.5110346468     -1.3618968424     2.5305431513
C     -2.9412541623     -0.2020446583     3.080760621
C     -3.4258536169     1.0926644762     2.587517988
C     -4.4741161806     -1.3175947123     1.4652000502
C     -4.87831322     -0.0971164278     0.9519127354
C     -4.3810930034     1.1095287128     1.5417920898
C     -4.1850731388     -2.4246415851     0.5727167288
C     -4.9776737507     0.0881712172     -0.4886065913
C     -4.6628487972     -0.9680149352     -1.3332630561
C     -4.2582947136     -2.2523271987     -0.7973255684
C     -0.9383768397     -4.1485827269     0.9328280548
C     -2.1396564022     -3.8065404553     0.295194887
C     -3.1114505489     -3.1906369508     1.1300026108
C     0.2666293772     -4.3430618012     0.2048540798
C     1.632407473     -3.6551083633     -1.6558361574
C     0.343247491     -3.9932237573     -1.1733247717
C     -0.830530387     -3.4636826344     -1.8444844659
C     -2.112568308     -3.5096771028     -1.1394326672
C     -3.201699514     -2.7704855129     -1.6461005822
C     4.7164663649     -0.3802298547     -0.977189107
C     4.4326061266     -1.6883739725     -0.4816997837
C     3.6570997219     -2.5401062147     -1.3373532525
C     2.7718356244     -3.5349120392     -0.7892043062
C     2.626423116     -3.6700429184     0.6134935199
C     1.3680647753     -4.0932551163     1.0939597453
C     2.9988180188     2.1074276527     -2.8300994776
C     3.9972394524     1.4920367719     -2.1164278123
C     3.2774019032     -0.7209926672     -2.9777786302
C     4.1966997239     0.067511868     -2.235260349
C     3.0722840882     -2.0472840361     -2.53655296
C     -0.1972469455     -0.0380664222     -4.2992075405
C     -0.2015065346     1.3974249673     -4.2161109209
C     0.9458192684     2.0568434502     -3.8708181261
C     0.9287623523     -0.7954391507     -3.9546728007
C     2.1987956943     -0.0772520711     -3.731661073
C     2.1732320137     1.332309841     -3.7359957309
C     -3.0172890043     -1.8483756181     -2.7180225414
C     -0.6471628824     -2.5418648558     -2.9521293114
C     -1.767379652     -1.7212529896     -3.3603764667
C     -1.5308673518     -0.4748817104     -3.9890043419
C     1.7951586705     -2.7155026282     -2.71436295
C     0.696355577     -2.1062471973     -3.3345907982


