94

 C     2.5219919585     -3.2638429732     -1.2085655081
C     1.3531691382     -3.7675647324     -1.8686831897
C     4.3633951444     -1.5793612427     0.1925005722
C     3.5122615637     -2.4142867191     0.9430325587
C     2.5803018307     -3.3101662933     0.2330086305
C     1.4528135994     -3.8787447785     0.9644371111
C     1.2655097241     -3.5089903634     2.3227096893
C     4.8364906361     -0.3085025104     0.6927410366
C     4.4576324155     0.1389318666     1.9545822154
C     3.6226382751     -0.6946250402     2.7555376389
C     3.2046775422     -1.968806841     2.3009300486
C     2.0541805282     -2.4814700199     2.9330127582
C     0.2635758147     -4.3468189375     0.2519417639
C     0.2404791441     -4.2368478489     -1.1584416356
C     -0.0422249124     -3.4301859371     2.9016874647
C     -1.1542227787     -3.8547688193     2.212149806
C     -1.0072267629     -4.343653062     0.8757497417
C     -0.1210544764     -2.2191187852     3.6840374165
C     -2.3930385327     -3.1374481785     2.3315990128
C     -2.4716429026     -1.9084922492     3.006887056
C     -1.2553581264     -1.3997457555     3.6773219969
C     2.705327079     0.1643997536     3.4812639256
C     1.4243180708     -0.2806993786     3.8695960165
C     1.2037498831     -1.671244508     3.7487729677
C     0.3006359118     0.6296912783     3.8568330065
C     -1.0471551384     0.0462525843     3.8380006144
C     -2.1275771981     0.8797901447     3.5369854829
C     -3.0964562395     -3.3497090461     1.0741422447
C     -2.2253143404     -4.0071753654     0.1583317877
C     -2.1996638493     -3.6197232725     -1.2088814605
C     -0.9820045581     -3.8593173507     -1.87869321
C     -3.9878299768     -2.410553947     0.6089005369
C     -4.2842994343     -1.2536554221     1.413579774
C     -3.3465220614     0.3927314273     2.9106471714
C     -3.5093068259     -0.9691287706     2.5710467574
C     -4.0176636906     -2.0365905913     -0.7794420555
C     -3.0596648828     -2.5448858357     -1.6955247472
C     -1.3755753082     -1.9989819455     -3.463781949
C     -0.6211049083     -3.1303562439     -3.0229648045
C     0.8338062942     -3.1493760405     -3.0793840176
C     1.5204597158     -2.1465251482     -3.6900638175
C     -3.1772155994     -0.3326720263     -2.8899025834
C     -2.6243026479     -1.6895544728     -2.7932342836
C     -2.441029988     0.6333798974     -3.6128382467
C     -1.1478670938     0.3432184074     -4.1557198664
C     -0.6215182356     -0.9500449027     -4.1448796457
C     0.8037656783     -1.0235294496     -4.2442809597
C     -4.4891256764     -0.6884734174     -0.8339140816
C     -4.1417912372     1.5748782576     -1.5712288989
C     -4.1029502376     0.177540366     -1.8752489025
C     -3.8637670832     1.437939268     2.1006624391
C     -4.492929849     1.1543884313     0.8466869456
C     -4.6865439629     -0.2098631735     0.5194328189
C     -4.2911883772     2.0569725711     -0.2316270266
C     4.1936211492     -1.4509068959     -1.2371299047
C     3.3013840022     -2.2707248369     -1.9402312048
C     2.7846333206     -1.7076671405     -3.14632548
C     2.8643662542     -0.3187009219     -3.4005121493
C     3.5816533653     0.5625014315     -2.5676731021
C     4.4022185829     -0.074069471     -1.594629238
C     4.4387828334     1.9322895044     -0.2316402123
C     4.8369900004     0.6210573122     -0.4148820333
C     -0.3047120461     1.5033809785     -3.9789698634
C     1.0835204398     1.3927784938     -3.768094538
C     1.6268273136     0.1080834555     -4.0396504795
C     1.7402209413     2.3024745758     -2.8443395032
C     3.0565154078     1.9110136258     -2.3170801304
C     3.5502287796     2.5724235089     -1.1812595688
C     -1.0744557983     2.522876501     -3.3486819279
C     -0.5065560155     3.3823838917     -2.3982689617
C     0.9392163458     3.2899094569     -2.1589238494
C     0.550094674     4.3248065679     0.0670673726
C     1.4497982328     3.862100024     -0.924535865
C     2.7244367706     3.4917999072     -0.451407738
C     -2.7771160703     3.4732854428     -1.3149010306
C     -3.2600392611     2.4879610233     -2.241370113
C     -2.431025582     2.0185253228     -3.2270370166
C     -0.8687106583     4.3595888283     -0.1472652953
C     -1.4188732964     3.9197627238     -1.3629679734
C     -3.0035298907     2.5870739777     2.2507639489
C     -1.514881392     4.1124029581     1.1078936048
C     -2.7800700557     3.4735841865     1.1678484432
C     -3.4376579428     3.2175559365     -0.0722061655
C     2.9232265451     1.5104240256     3.0752290756
C     1.8416628439     2.4077164292     2.9528919521
C     0.5162604936     1.9902881826     3.4150505951
C     -0.4844356171     3.8284459403     2.0700119782
C     -0.6357591532     2.7917569141     3.0246745418
C     -1.9388630013     2.2373597393     3.1431668983
C     3.002993498     3.3482465622     0.955955023
C     4.0629395802     2.3927387465     1.090941988
C     4.052467649     1.5135576311     2.1574951014
C     0.7817839769     4.0598078767     1.448121694
C     1.9525497251     3.4220647257     1.9028230103


