94

 C     -2.0553720463     -3.6049293388     -1.7450174069
C     -0.6953191269     -3.8794518939     -1.8689304466
C     -0.0938520849     -4.5061356639     -0.7318623498
C     1.3226625378     -4.4458555431     -0.5138687336
C     2.114510285     -3.8504130298     -1.4513146949
C     1.5143880092     -3.1598270767     -2.5902799642
C     0.1071589423     -3.0432879701     -2.7486006026
C     -2.675287559     -2.5457999913     -2.5007417876
C     -1.8836551318     -1.5812997616     -3.1731317268
C     4.3684055222     -1.7775630364     0.6367289695
C     3.6414075815     -2.9487748942     0.3259551855
C     3.3233721206     -3.1545761813     -1.0621909589
C     3.5358247084     -2.1453630651     -2.0219690074
C     3.8921353125     0.2031806572     -2.4396882061
C     4.2267397536     -0.952694028     -1.7017429719
C     4.6684130923     -0.7861535661     -0.3585030504
C     -3.6842374972     0.0460252689     -2.7051759194
C     -2.4153317729     -0.2321981824     -3.2905292004
C     -0.4457271222     -1.8213389943     -3.3025063063
C     -0.0717018372     0.6513143653     -3.6936344847
C     0.4432521849     -0.7128763622     -3.6196694141
C     1.8781924854     -0.9055505691     -3.4691040288
C     2.3784349774     -2.1199424508     -2.9362943693
C     2.7364197267     0.2151834668     -3.3451724909
C     2.7092575649     -3.4883064071     1.335514877
C     1.5932416637     -4.2569045334     0.9059280008
C     4.1540431554     -1.0675709473     1.8841371785
C     3.242542929     -1.5501205989     2.8075794409
C     2.5224909012     -2.7770661514     2.5431233763
C     4.2478360222     0.336481792     1.6476760397
C     2.3937388797     -0.6455853948     3.5016228564
C     2.4447536013     0.7446949956     3.2757312615
C     3.4113719785     1.2624110408     2.3094162772
C     2.8847118779     3.6948010532     -0.5135906824
C     3.5959280533     2.7483048048     0.256026337
C     3.1725009977     2.5397914843     1.6476648465
C     2.1227546177     3.3260381448     2.1533320822
C     4.6255113343     0.5140987015     0.2575359647
C     4.0153326586     1.4924931187     -1.8715853124
C     4.2650443802     1.6644650438     -0.4644550037
C     1.2245842603     -2.6395911587     3.1349406637
C     0.0761036298     -3.2728193718     2.6080348112
C     0.3253891654     -4.1746463541     1.5363731853
C     -1.2259050192     -2.6430606795     2.7558172244
C     -2.3163706479     -3.0830974496     1.8773400386
C     -3.4872677197     -2.3085145697     1.8033322131
C     1.1343803201     -1.3329138538     3.7242733975
C     -0.0815024551     -0.6680325208     3.8296369265
C     -1.3067731862     -1.3612407245     3.4100106372
C     -2.4360772445     0.8428660836     3.402843174
C     -2.5039743473     -0.5632084571     3.2472835075
C     -3.5706102227     -1.0374720573     2.4579334506
C     1.182825436     2.8160973135     3.1359803277
C     1.2465594364     1.4913383605     3.599533921
C     -0.0126506531     0.7930944332     3.9099420213
C     -1.2107205526     1.5032581827     3.7790580407
C     -2.0126780745     -3.9189252719     0.7140991395
C     -0.7078932434     -4.4124424888     0.5425086898
C     -4.2980343806     -2.2309217315     0.6039997021
C     -3.8995128653     -2.8952685552     -0.5428017272
C     -2.7497691833     -3.739695845     -0.4910542764
C     -4.8238341354     -0.8839466581     0.5128833241
C     -3.8916969138     -2.1984123461     -1.8165300208
C     -4.3823719456     -0.9137428448     -1.9023801094
C     -4.8939595059     -0.240189765     -0.7136207477
C     -3.1751621884     1.7211177544     2.5608703006
C     -4.059894713     1.235056435     1.5740532646
C     -4.3753846785     -0.1460451322     1.658916409
C     -3.1881699542     3.05206311     0.0444850578
C     -4.1049846205     1.9233750098     0.2887819316
C     -4.5585209931     1.1603667431     -0.8186708355
C     -2.7921919744     3.2979719164     -1.2845449358
C     0.0012298835     4.2558284931     1.7188178429
C     -0.0747914993     3.4645830303     2.9063434871
C     -1.2512758629     2.8214710574     3.2264417653
C     -1.0483764312     4.2527658087     0.7711489362
C     -2.3028948666     3.5516814695     1.103852859
C     -2.3876160812     2.9200047603     2.3603849789
C     0.7141200575     4.4778738939     -0.9969032945
C     1.7594932842     4.4051819887     0.008741715
C     1.3994681734     4.2563118399     1.3265931785
C     -1.5160666731     3.8783787066     -1.6139367177
C     -0.6572190524     4.4018699913     -0.6309689738
C     3.0733366242     2.3414907819     -2.5512906399
C     -1.0039685039     3.1989962024     -2.7706335987
C     0.3686005792     3.0464710534     -2.9992569002
C     1.2128819138     3.8448790699     -2.1746257906
C     2.5669405431     3.4329392634     -1.907209814
C     -3.9556382817     1.3314945018     -2.1135251066
C     -3.0982365543     2.3689430312     -2.3346084931
C     -1.9296653144     2.1764631664     -3.1478842461
C     -1.5011983856     0.8827538807     -3.5236337741
C     0.8379049702     1.7728834769     -3.5420357932
C     2.2284469713     1.5203487201     -3.4023639005


