94

 C     4.6790454559     -1.6872110646     -0.1251555235
C     4.788788288     -0.6324252411     -1.1258539937
C     4.5839167846     -1.3430859826     1.218573362
C     4.8810188524     0.6870195221     -0.7325430826
C     4.1666825592     1.6877517529     -1.4712472846
C     2.3945474557     -2.7972572692     -2.6145147968
C     3.8528097748     -2.7224057208     -0.6448880663
C     3.5264600033     -2.3388804879     -2.0133769226
C     2.0567296817     3.446968599     -1.9775371275
C     2.1386726558     2.2721370584     -2.7630721371
C     3.239039846     1.3543750439     -2.4987845096
C     3.1075505552     -0.0398363629     -2.8863647284
C     3.9591546523     -0.9825959414     -2.2462922742
C     1.5746664063     -1.9082916902     -3.3971663289
C     1.8418347166     -0.5187745939     -3.4634097834
C     1.5523581372     -3.7451830017     -1.9366745675
C     1.7688410696     -4.0121184072     -0.5495072738
C     2.8853766145     -3.3869718097     0.1499857294
C     2.7109164616     -2.9527525252     1.5386347973
C     3.5834959755     -1.9684175666     2.0337585709
C     0.6274845596     -4.3571633388     0.1892163292
C     0.2431626169     -3.5916642811     -2.4629315438
C     -0.9005551029     -3.9309551278     -1.7210659537
C     -0.6618293045     -4.4394249837     -0.4072598697
C     -2.8544828801     -3.7010902987     0.3199686626
C     -1.62673451     -4.2114746907     0.6333515391
C     -3.2035385308     -1.195023739     -2.8765368627
C     -2.1350106803     -2.1023365953     -2.9443975256
C     -2.1469387329     -3.2394361948     -2.021467768
C     -3.1632990263     -3.2883835551     -1.0363252188
C     -1.5619117686     2.0858041013     -3.4316246786
C     -1.7774251886     0.6991352871     -3.6341307248
C     -0.6333576398     -0.1898444053     -3.743450993
C     -0.8682989881     -1.6048550418     -3.4911052122
C     0.252165815     -2.4238973569     -3.3417907696
C     -3.0240501591     0.1912378041     -3.2075323909
C     -0.2278359731     2.6151453758     -3.3505943787
C     0.7149811199     0.359028858     -3.6685165785
C     0.903897323     1.7893290961     -3.4077435121
C     0.4581264376     -3.9121954282     1.5705785468
C     1.4056609628     -3.0943779849     2.1985017235
C     0.9163136345     -2.1187429042     3.1626772127
C     1.8251334388     -1.0415682078     3.5411757496
C     3.1245477127     -0.9909770275     2.998958545
C     1.3035741953     0.1984378049     3.9814969209
C     -0.9305654305     -3.8002680118     1.8370891307
C     -1.4537578491     -2.8011205058     2.683575869
C     -0.5078865521     -1.9507116162     3.37441327
C     -2.3362166574     -0.2595350424     3.6455305643
C     -1.0036435244     -0.6700052396     3.8932317561
C     -0.1011521838     0.3828962617     4.1304389545
C     -3.2559376436     -1.1025142541     2.898140738
C     -2.8294766849     -2.3526277329     2.4134682681
C     -3.5126179889     -2.8066719926     1.2440413446
C     1.8724094556     1.4401772355     3.5752097529
C     3.0678718174     1.4950496262     2.8462815933
C     3.7692112297     0.2599509922     2.7145139161
C     4.6828698179     0.0425355396     1.625929981
C     4.8474162888     1.0402118379     0.6808917916
C     2.0427738229     3.4135363005     1.5567729999
C     3.1968227767     2.5338361771     1.8331283583
C     4.1399399603     2.2973373311     0.8055043405
C     1.9566373027     3.9986896513     0.2882009271
C     2.8344805557     3.5932834307     -0.7769164114
C     3.8746914657     2.7444181471     -0.5335402697
C     -2.6708036618     1.0981975968     3.3964356522
C     -1.6726762005     2.1101866352     3.3067416639
C     -0.4165144034     1.7483789047     3.8125062696
C     0.783639431     2.3793337078     3.3718098737
C     -0.5147072726     3.6655703897     1.7132610023
C     0.7854581983     3.2864560599     2.3033482301
C     -3.8029770962     1.0931844525     2.5017842778
C     -3.9330382309     2.0894951356     1.5733722092
C     -2.9235567301     3.1260954532     1.4548676572
C     -1.7323563109     3.1165697729     2.259016602
C     -0.5424518515     4.1873860862     0.3522606788
C     0.689701315     4.3562258806     -0.3112309581
C     -4.3713284238     -1.9505575638     0.4895605669
C     -4.6535724932     -0.6242372133     0.8995967116
C     -4.1702589391     -0.2736225777     2.1894320941
C     -4.5801048125     0.0869432527     -1.474610506
C     -4.2093912031     -1.2626387413     -1.8544468524
C     -4.1553515948     -2.2675118012     -0.9176272896
C     -4.4648957626     1.7821626503     0.2529951958
C     -4.7908805399     0.4339202827     -0.1162253443
C     -2.4163145339     2.8600482988     -2.5941749387
C     -3.8554850937     2.6795292491     -0.6485053161
C     -3.5515631034     2.2871590224     -1.981185791
C     -3.9101942426     0.9735456764     -2.3754406815
C     0.8051521638     4.0957037751     -1.7150593131
C     -2.903892567     3.512441234     0.1044660315
C     -1.7311463993     4.0342483426     -0.4883684273
C     -1.5846713465     3.8185259091     -1.8898902779
C     -0.2951135508     3.7559905168     -2.4691512034


