94

 C     -3.836348818     2.4643912707     -1.4469590903
C     -4.5426150708     1.4264636429     -0.9049410186
C     -4.4702253319     0.1308745063     -1.5191868207
C     -3.0180056705     2.2361429321     -2.6019589219
C     -2.7415643098     0.9201305502     -3.086528572
C     -3.5400347032     -2.4986244219     -1.7217753742
C     -1.039951736     -3.0039404533     -2.8668884622
C     -1.6786544868     -1.7810515222     -3.1847088722
C     -3.0089029938     -1.5332345429     -2.6224079332
C     -3.5189129792     -0.171636692     -2.5385555642
C     -2.0777902713     3.7919530448     1.5139178941
C     -3.2184116711     3.295944076     0.8323292949
C     -3.1990228257     3.4575606897     -0.5810927016
C     -0.7944882209     3.0214258972     -3.1375117258
C     -1.9958841219     3.2368347228     -2.5386269989
C     -2.0475615784     3.9301495286     -1.2622572632
C     -0.8332739773     4.2546228467     -0.5833367403
C     -0.9114215921     4.2383317605     0.8240602128
C     -1.4208498786     0.6605965551     -3.6608062793
C     -0.5361692677     1.7582584712     -3.7836664531
C     -0.842790436     -0.6800870374     -3.6317535865
C     -3.9511547921     2.1561532196     1.4109132476
C     -4.6446061156     1.2730671437     0.5419589157
C     -1.619488998     3.1775585582     2.74594714
C     -2.2816296114     2.0907517249     3.2615071286
C     -3.4674013638     1.5736303498     2.6143298699
C     -0.1854806496     3.2312862545     2.7966001538
C     -1.5284961693     0.9933207669     3.8128960799
C     -0.1191548466     1.0088667558     3.8589388304
C     0.5781568475     2.1915271254     3.3747933437
C     3.6451857311     2.474023402     1.2238220827
C     2.4424457624     2.8766455185     1.8384834772
C     1.958517503     2.1108289754     2.9834082263
C     2.6616631457     0.9426562167     3.3644392662
C     0.4356233836     3.5045594414     -2.545271588
C     0.4603163669     4.0045421577     -1.2166436638
C     2.7974821579     3.1066547055     -1.0316880454
C     1.6451471983     3.733142218     -0.4143207549
C     1.5079857585     3.6489571846     1.036212528
C     0.255055378     3.9088550275     1.6174114931
C     3.8200649242     2.5849440151     -0.194344795
C     -3.4692334532     0.1621201421     2.8232163244
C     -4.0658521116     -0.7284622474     1.9108894853
C     -4.7351806432     -0.1221271356     0.8053049367
C     -2.3117412631     -2.4384525482     2.5348557179
C     -3.5239498535     -2.080099583     1.7936733353
C     -1.5566228497     -3.5411167228     2.0899165955
C     -2.2488475553     -0.1985208324     3.5365810001
C     1.9502709274     -0.2539612112     3.707779929
C     0.544679817     -0.2719998192     3.8419959589
C     -0.169648644     -1.4875128227     3.5151440788
C     -1.6084329659     -1.4370659269     3.3296651191
C     0.5812180595     -2.5888950657     2.9337819696
C     -0.126648836     -3.580714231     2.2478345674
C     -1.8776229948     -4.2508301547     0.8797164036
C     -2.9581278581     -3.8356823425     0.1205964033
C     -3.8070039662     -2.7943774126     0.6025030535
C     -4.3022242445     -2.0896380651     -0.568684837
C     -4.7494625225     -0.8040849985     -0.4725421722
C     -0.6398884963     -4.6406540095     0.2429494808
C     -2.800158933     -3.6612236072     -1.3206990011
C     -1.5915872983     -3.9380031452     -1.9148213632
C     -0.5020263576     -4.497170365     -1.1399623258
C     1.6906499839     -3.8642410629     0.5785172156
C     0.4401373014     -4.2542282224     1.0934017425
C     0.7180777002     -3.9983912705     -1.6760563925
C     1.839373383     -3.7404883641     -0.867426938
C     2.5579335113     -3.1106051306     1.4558821179
C     2.6862865481     -1.3763729756     3.1910157914
C     2.0034054408     -2.4768061515     2.6489711454
C     3.7407046564     -2.5918882336     0.8934156743
C     4.711426716     -1.3321914076     -0.8121686819
C     3.8986641505     -2.4851670662     -0.5448236498
C     2.8632665664     -2.8807494061     -1.4171049436
C     4.4547217786     -0.5663624984     -1.9380430697
C     3.3861956239     -0.9375927231     -2.8266050894
C     2.5715634546     -2.057810481     -2.5896419704
C     3.911022856     -0.8859931041     2.624158773
C     5.0382955936     -0.6891593778     0.4476223533
C     4.4469697992     -1.4947022541     1.4985097876
C     4.4605455177     0.8798138351     -1.8452623487
C     4.6812674926     1.5019138129     -0.6219850021
C     5.0146319572     0.699846463     0.5407602351
C     4.3959026835     1.3313754247     1.6891411297
C     3.886730127     0.5589884111     2.7195677831
C     1.4727579924     2.6896989844     -3.0525513445
C     3.4453986889     1.3850063835     -2.7184197353
C     2.6883684964     2.5337520009     -2.367606673
C     0.3835330482     -3.1011850821     -2.7704573472
C     1.2192803919     -2.0527448904     -3.1441074586
C     0.600854415     -0.8447883217     -3.6679943392
C     2.8096010934     0.263147543     -3.3572877601
C     1.4561665759     0.3179087661     -3.7773331702
C     0.8727368294     1.5930119172     -3.7877304543


