94

 C     -4.3628125693     -1.234057788     0.6661094188
C     -4.2218043367     -0.0769285184     1.4568276498
C     -4.4515557319     1.1524887338     0.7877982598
C     -3.9722749819     2.3917675147     1.3167977212
C     -3.2188214348     2.3876682875     2.4809065792
C     -3.7370920734     -2.4664591493     1.0304166762
C     -2.7806525005     -2.5186535774     2.0680965261
C     -2.5271369382     -1.3013115396     2.8481813419
C     -3.3190088914     -0.1221125547     2.5996028041
C     -2.8521369086     1.125555455     3.0985189495
C     -0.3323426477     -2.2122075462     3.5011812725
C     -1.2435187507     -1.1394948593     3.5111883408
C     -0.5752650925     -3.4068947552     2.7172155345
C     -1.7517084211     -3.5508696688     1.9635406757
C     -1.6266693706     -4.3230012057     0.7682483167
C     -2.5416848754     4.1197939103     0.3396588062
C     -1.7844207354     4.1729774587     1.576560334
C     -3.5882765753     3.2393255505     0.2014924179
C     -2.1040226734     3.2970775187     2.6150412196
C     -1.0519493118     2.6034703149     3.2820877878
C     -0.4217123562     4.4088471816     1.2375628733
C     0.6367857256     3.7724566241     1.9158963041
C     0.3006846808     2.8094421617     2.9700004626
C     -0.6781744948     0.1763475222     3.7653761067
C     -1.5378419347     1.2745486171     3.6161580367
C     1.0651142154     -2.0073437884     3.6137961366
C     1.6424434084     -0.7066262051     3.6466508633
C     0.7533742397     0.4179930739     3.733625044
C     1.227361302     1.7429847785     3.3221719847
C     2.5325481609     1.8698618946     2.8420925545
C     -0.5876776558     3.3984155848     -2.7140615345
C     -1.7612522496     3.5417597226     -1.9558081681
C     -1.6319715611     4.3139604994     -0.7610119388
C     -0.3454456366     4.5975811117     -0.2121094302
C     0.839920069     4.3525892385     -0.9282908018
C     0.6703115404     3.8867816009     -2.2662431134
C     2.8819707502     2.8915090178     -2.2532019831
C     1.6845748112     3.0782861226     -2.8919063551
C     2.8771674481     2.8321379539     1.8132301669
C     1.9228424323     3.6862893135     1.2363671764
C     2.042980852     4.0002578622     -0.1867545643
C     3.1040172334     3.408036394     -0.9172358147
C     -2.7900399697     2.5089895951     -2.0563538219
C     -3.7424006792     2.456281896     -1.0149550214
C     -0.3471706606     2.2038588886     -3.4989707353
C     -1.2578012562     1.1306564935     -3.505427388
C     -2.5389126278     1.2917832611     -2.837421978
C     -3.32917557     0.1121595398     -2.5857605657
C     -2.8635815154     -1.1352579332     -3.0864935074
C     1.049946937     1.9997463129     -3.6170319248
C     1.6278427726     0.6993391893     -3.6521383814
C     0.7390458846     -0.425757913     -3.7356468695
C     -0.6927446191     -0.1848820022     -3.7618185472
C     -1.5512336845     -1.283544817     -3.6092509107
C     2.5224604642     -1.8766695423     -2.8510566142
C     1.2153449904     -1.7504944988     -3.326045927
C     3.3895778288     -0.7389761522     -2.7128059921
C     2.9677358634     0.5491285796     -3.098521284
C     3.5795865995     1.6327498928     -2.4012413128
C     -4.2274866029     0.0664907832     -1.4394760825
C     -4.3660348545     1.2235447081     -0.6482131034
C     -3.2271784118     -2.3975668493     -2.4674590625
C     -3.9760874309     -2.4020702004     -1.3004235342
C     -4.453968575     -1.1630490477     -0.7695575574
C     -2.1124214879     -3.3063776716     -2.6059392364
C     -3.5872898944     -3.249421907     -0.1866233693
C     -2.5407698626     -4.1293245684     -0.3288679158
C     -1.7883034245     -4.1821018431     -1.5687118409
C     0.2906214176     -2.8174493623     -2.9702667942
C     -1.0633293252     -2.6122039535     -3.2770804502
C     -0.4241581424     -4.4172399239     -1.2350283207
C     0.6313455848     -3.7802811698     -1.9174817501
C     3.9454956154     -2.2658230157     -1.0647920329
C     2.8716049409     -2.838759711     -1.823547574
C     1.919994348     -3.6934231846     -1.2429697574
C     4.0371984538     -2.5210098076     0.2893510343
C     3.1094034111     -3.4145333148     0.9060138564
C     2.0458469744     -4.0073259764     0.1796722949
C     4.342767139     1.4192562901     -1.2186246094
C     4.6246162561     0.1152990625     -0.7349241371
C     4.2457416472     -0.9527946268     -1.5867963821
C     4.2513847144     0.9469114766     1.5711234716
C     3.9484006473     2.2597768187     1.0502947213
C     4.0346890792     2.5150116312     -0.3041954166
C     4.3482491365     -1.4250876357     1.2025744323
C     4.6275107567     -0.1209798552     0.7177805183
C     1.6974906071     -3.0855438462     2.8862016512
C     2.8922877393     -2.8981233588     2.2428362334
C     3.5897985021     -1.6389895571     2.3881555702
C     2.9800876664     -0.5556960923     3.0878165095
C     3.3997314001     0.7326346338     2.7004623511
C     -0.3421412597     -4.6059315993     0.2143348352
C     0.8458746295     -4.3603022644     0.9258917555
C     0.6812316867     -3.8945857151     2.2644958349


