94

 C     -0.9330979979     4.6639293508     0.6273471094
C     -1.4822154732     4.4901972641     -0.7100587891
C     -1.5724228755     4.0939528619     1.7110034755
C     -2.7065988586     3.8861219288     -0.8783313883
C     -2.8967581593     2.9615531285     -1.9462786245
C     2.5493014812     3.5585171503     1.1731745279
C     1.254501645     3.922587145     1.5476949017
C     0.4873128321     4.5676526856     0.5346529277
C     0.8172150378     4.3520425208     -0.8433639603
C     2.0160726057     3.7460125025     -1.2334957709
C     2.9846033233     3.5997716878     -0.2020630584
C     4.188062333     1.956485634     -1.5038639167
C     4.0765334569     2.7000055448     -0.3367694067
C     -3.0999279593     0.3905673397     -3.0505345435
C     -1.8949915562     1.1360228275     -3.291183413
C     -1.8043105443     2.4806124031     -2.7322528573
C     -0.4997611148     3.0902853455     -2.5382538347
C     -0.397724027     4.1433710337     -1.5808762388
C     0.5984709292     1.0662201612     -3.5125030707
C     0.7090207471     2.3792835291     -2.923873686
C     1.9972560073     2.8202990994     -2.3599421023
C     3.1334180191     2.0037607297     -2.4953723274
C     0.5844781996     3.1422437148     2.5793752548
C     -0.8187995868     3.3008394969     2.6655248865
C     -1.6532490464     2.2373155014     3.087683573
C     3.259040617     2.5096002759     1.8473603715
C     2.5799044741     1.6174815169     2.7160260882
C     1.1875173219     1.9174957212     3.0766072727
C     0.3312756946     0.8605761563     3.5691649872
C     -1.1195026918     1.0137911549     3.5192613216
C     0.874760556     -0.4807558125     3.7455667882
C     -0.0403812415     -1.5430952601     3.8856271636
C     4.2993400365     2.0665110427     0.94846718
C     3.0981238872     0.2577827697     2.8160520299
C     2.2387842783     -0.7963790788     3.3276009829
C     4.7437416687     0.7648109438     1.0031054745
C     4.1994411863     -0.117139759     1.9930259762
C     -1.4633853606     -1.3789688928     3.7427987849
C     -2.0251818724     -0.1228191762     3.4756765306
C     -3.2649462885     -0.0628589738     2.6962916158
C     -1.9918226407     -2.5770513006     3.1569606188
C     -3.1083785186     -2.5110711541     2.3594228174
C     -3.7813392179     -1.2625980838     2.1671527389
C     -1.8708681271     -4.1504834481     -0.7042486765
C     -3.16902137     -3.2836596883     1.1454319507
C     -2.0311914441     -4.015070513     0.6977813422
C     1.5073301568     -3.1265555041     2.8719703472
C     0.2689539813     -2.869195123     3.3980096909
C     -0.8912887364     -3.4421735319     2.7967687676
C     1.6264768812     -3.8357976178     1.6253966633
C     0.4933235757     -4.2154485973     0.8974355297
C     -0.8287384245     -4.0724272213     1.5294318099
C     2.5321712181     -2.1343807663     2.9600348824
C     -3.6559463973     1.1718895836     2.0390001977
C     -2.9322960422     2.3251991707     2.3911672388
C     -2.8728051122     3.4747306976     1.5450340447
C     -4.3504724482     1.1412333102     0.7490958192
C     -4.2064990648     2.2676370407     -0.0971441458
C     -3.4652967539     3.4188416591     0.2868968939
C     -4.4046484087     -1.3148083946     0.8643578866
C     -4.6359573448     -0.1488625628     0.1180163991
C     -4.5465676995     -0.2698848523     -1.3114493454
C     -4.0769369475     0.8462093016     -2.0906837263
C     -3.9496414423     2.0726525918     -1.520728032
C     -3.9999294434     -2.5534502461     0.2345594177
C     -2.6976196186     -3.4401695617     -1.6108246901
C     -3.7498812333     -2.6020868139     -1.161999358
C     -4.0293057513     -1.4354804     -1.9234988187
C     -0.6281451612     -3.6811749543     -2.6163924221
C     -1.889691119     -3.0709443716     -2.7758140798
C     -1.9965178808     -1.7760137715     -3.3537365135
C     -3.1297608272     -1.0174664756     -2.9984255571
C     0.4952076492     -3.0940015274     -3.1792384743
C     1.8588959487     -3.6862897793     -1.2060939293
C     0.6352590412     -4.2255586144     -0.5628330894
C     -0.5472551653     -4.272291198     -1.3103795166
C     1.749978674     -3.1814758273     -2.5170258352
C     4.6050175125     -1.3702696134     0.0381084982
C     4.2861756195     -1.4444030646     1.4363922969
C     3.4531130171     -2.4270271728     1.8991285569
C     3.8907753335     -2.157741796     -0.8942634057
C     2.9738165906     -3.2021125746     -0.395194223
C     2.8484656733     -3.3630189318     0.9929172984
C     3.952574957     -0.1816773997     -2.4232722837
C     4.6671257095     0.5932230574     -1.4434870565
C     4.9660229976     0.0085995963     -0.2238470947
C     2.5378380651     -2.0318043375     -2.9401394776
C     3.6156912573     -1.540068478     -2.1867570089
C     -0.791984997     -1.0508529984     -3.7699141632
C     -0.7088940587     0.4163158273     -3.6509723556
C     0.3961199077     -1.797686101     -3.7863885401
C     1.6780329911     -1.1659807525     -3.6691250562
C     1.7940229968     0.2398312342     -3.5890238119
C     3.0250299577     0.7009688352     -3.0784332554


