94

 C     0.5439464298     2.8645508005     -3.1281996113
C     -0.3355977029     1.8125134997     -3.4900305996
C     -1.7057579419     2.0660396874     -3.2548226994
C     -2.6282884806     0.9982260928     -3.140456632
C     -2.2080991879     -0.347087887     -3.2926024921
C     -3.1031586556     -1.2997888319     -2.768070988
C     1.9188498497     2.6144198037     -2.8900376514
C     -0.3521919216     -1.9959072848     -3.1338375002
C     2.0333916734     -1.1550295366     -3.1011950642
C     2.4538052425     1.3234427137     -2.9674945439
C     1.5682570002     0.2051968656     -3.3314858697
C     0.1696740772     0.4390098465     -3.5526216492
C     -0.7963271988     -0.6693954246     -3.4563585625
C     3.3340674999     -1.346505488     -2.5594334813
C     4.0851982961     -0.2421599154     -1.9996515856
C     3.6720798976     1.0811277133     -2.1949548205
C     4.0963834552     2.0119078835     -1.2034418276
C     -3.63954168     1.3789776858     -2.2061619665
C     -4.1787252751     -0.9220607135     -1.8666175942
C     -4.3317079692     0.4191188502     -1.4385132182
C     -4.3902029748     -2.0179799832     -0.9714233477
C     -4.6645884693     -1.7598802708     0.3693445023
C     -3.4868373405     -3.0879106481     -1.3400105743
C     -3.9585052165     -2.5221108     1.3848718594
C     -3.133068087     -3.5784938358     1.0323046638
C     -2.9447824018     -3.9048332966     -0.3679803436
C     -1.6064274931     -4.3785914683     -0.5407428776
C     0.5424245385     -4.2041224366     -1.555360776
C     -0.8316494823     -4.0118161155     -1.6819935359
C     1.0737619519     -2.2493884526     -2.9981307964
C     -1.3082669275     -2.9693357862     -2.5810070989
C     -2.6586656692     -2.6084736934     -2.4396770328
C     1.4915962342     -3.4368738872     -2.3358962624
C     -4.7678616006     -0.3935200246     0.8283623897
C     -4.609865463     0.7177793256     -0.0322150099
C     -4.1267543117     1.9911352622     0.5319353234
C     -4.1968677313     -0.3721395295     2.1562457796
C     -3.6791945189     0.7864421226     2.651803945
C     -3.7622826131     1.9998305261     1.8946918353
C     -3.5467309442     -1.6318433335     2.4241149253
C     -3.4970095434     3.0063138338     -0.3340963706
C     -3.3055652323     2.6876392697     -1.7018155078
C     -2.6935031333     2.8416590918     2.3878809157
C     -2.1553997662     3.8197876595     1.5987907871
C     -2.5882567522     3.9563076277     0.2352174177
C     -1.8424597476     2.0596254828     3.2507697185
C     -0.7459024946     4.1235568623     1.6953982675
C     0.1225166056     3.3604757965     2.524499257
C     -0.4492212835     2.2447404573     3.274095713
C     -1.8677792853     -3.7369478103     1.6797862284
C     -1.3544917386     -2.7669953427     2.5896204239
C     -2.2312731146     -1.6711394378     2.96901929
C     -1.6420113858     -0.4241629936     3.4440634988
C     -2.4186972307     0.7651652663     3.3669133659
C     0.6468807591     -1.4249545329     3.2848399437
C     -0.2171993223     -0.2769899552     3.5601549968
C     0.3466951991     1.0722791283     3.577856755
C     1.7336185487     1.2342227468     3.4445502228
C     -1.4518097267     4.4451392705     -0.4862014197
C     -1.2205702351     4.0338366754     -1.8296754694
C     -2.1589542925     3.1495169551     -2.4173582311
C     0.1154119347     3.94361521     -2.2698217468
C     -0.3328398384     4.6073379436     0.4235519985
C     1.0134331378     4.4809089931     -0.0088667984
C     1.2153220631     4.2822259347     -1.4065867026
C     3.3681017181     3.2443424405     -1.0035224523
C     2.3558084451     3.5619314816     -1.8745502566
C     2.3263341072     2.3808619487     2.8157607413
C     1.5266058275     3.3654058165     2.1910691683
C     1.9949469765     3.9561269792     0.9324589631
C     3.2224614056     3.480459364     0.4035632887
C     3.7476750899     0.530886545     2.5435520028
C     3.5758885158     1.9403637993     2.2633900289
C     4.0014587583     2.4543978567     1.0572832246
C     4.0442134186     -1.7051282045     1.7347064758
C     4.4029369084     -0.3399306205     1.6357102307
C     0.9609649088     -3.5556274831     1.9858094361
C     0.0860775916     -2.6374648278     2.736470886
C     2.3375425788     -3.2948315908     1.9140968757
C     2.9041946571     -2.1273884183     2.5086062429
C     2.0778212524     -1.201316374     3.1867402511
C     2.6015996056     0.109622965     3.2824130173
C     2.5239889353     -4.1424647159     -0.3778462905
C     1.1512231649     -4.5276949193     -0.2998184827
C     0.401883784     -4.3482194278     0.8964898501
C     -0.9852154818     -4.3948351925     0.7461082975
C     3.1386645795     -3.6224678546     0.7426824127
C     4.4515381697     -2.0831673226     -0.649921643
C     3.6739485361     -2.5063157906     -1.7993402686
C     2.7508479496     -3.5297153314     -1.6789200256
C     4.1547880638     -2.5999496569     0.6055592036
C     4.5848132274     1.5693989654     0.0628699636
C     4.8010796294     0.1943614448     0.3267942415
C     4.7263746644     -0.6726160446     -0.7958511477


