94

 C     -1.0503866549     2.7327140492     3.3044199013
C     -1.716538335     1.5432657703     3.6741723523
C     -3.0307481655     1.3770063601     3.1554933099
C     -3.5776342445     0.0674687454     2.9471327232
C     -2.8875987048     -1.0345353112     3.3830737633
C     0.3814747605     2.7806616193     3.2726254344
C     2.5020814765     1.7078586397     3.129523635
C     1.1738431928     1.656244139     3.587645147
C     0.546267674     0.3666090795     3.8484615285
C     -0.9021559256     0.352947662     3.9914617042
C     -1.5421703042     -0.8914437196     3.9324245504
C     -1.2628921726     -3.9083791498     2.0800311465
C     -2.9683123548     -2.2534927123     2.6530384731
C     -1.7518479355     -2.9681689575     2.9410572258
C     3.2644055514     0.5058589998     2.9267528081
C     2.6489289956     -0.7616745347     3.0072984626
C     1.277818585     -0.8438021159     3.5273231929
C     0.5570570769     -2.0922193771     3.3634514539
C     -0.8296048498     -2.0862989667     3.6366515302
C     0.1580066153     -4.0704400231     1.9271397684
C     1.0820114382     -3.1637430044     2.5086022262
C     -1.9201772548     -4.1024826898     0.8091961084
C     -3.0294148585     -3.2937432003     0.4372594988
C     -3.5761964056     -2.3116003349     1.3665587458
C     -4.2264814516     -1.1040486646     0.8496687974
C     -4.2822596813     0.0315294369     1.6925203527
C     -3.8491283883     -1.8939971087     -1.4445003432
C     -4.3228742433     -0.8668724726     -0.5904402022
C     -4.3641785185     0.5028037378     -1.1194459406
C     -3.9151019855     0.719962515     -2.4521472333
C     -3.1664502211     -3.0520799525     -0.9463193263
C     -3.2859384374     -1.6065653598     -2.7347855857
C     -3.3162078459     -0.3266633693     -3.2164745413
C     -0.9016161926     -4.4817455247     -0.1275391719
C     0.339602989     -4.5606981833     0.5898471586
C     -4.2906431968     1.638664928     -0.2068710257
C     -4.2750101569     1.3755038772     1.1812233887
C     -3.1939588778     1.914321329     -2.8172400193
C     -3.0369615447     2.9415309182     -1.9341068353
C     -3.6460799444     2.8495488225     -0.6320356966
C     -2.0795345654     1.5666679266     -3.6924741664
C     -0.8256479772     2.2390118238     -3.5880728213
C     0.281111641     1.4880463552     -4.0238283026
C     0.2018895524     0.0816941464     -4.255909963
C     -2.1620166943     0.1770437976     -3.9462358267
C     -0.9937695559     -0.62840087     -4.1006009007
C     -2.8474299927     3.6283568461     0.2477214449
C     -2.7617641996     3.30703023     1.6217117414
C     -3.5242463929     2.2051798437     2.0941461807
C     -1.5422727555     3.588854894     2.2809875655
C     -1.6689713535     4.0866491832     -0.4823182099
C     0.8087316339     3.9642360014     -0.6162561735
C     -0.4029815717     4.2379027709     0.1474448349
C     -0.3944365144     4.1139154716     1.5605524692
C     3.1714358542     3.2084424541     -0.5565835095
C     2.0517690853     3.7567176692     0.1201508882
C     -0.6292178327     3.2692619539     -2.5651539821
C     -1.7701493378     3.6488920829     -1.8197527113
C     1.6007505563     1.7815321929     -3.5569694367
C     1.8160616145     2.7791504389     -2.576989302
C     0.6854043812     3.4793684338     -1.9796716999
C     3.035239477     2.673720901     -1.8670715789
C     2.0108055894     3.5678300845     1.5664748246
C     0.7771237922     3.6942734932     2.2379028527
C     4.1907740408     2.436798761     0.1236939752
C     4.0510166245     2.152014436     1.4710029299
C     2.947023604     2.7054512394     2.1936070998
C     4.7478625334     -0.1696953608     1.1136204569
C     4.2962433662     0.8125489937     1.9694596555
C     4.2651748697     -2.0792405488     -0.0715514651
C     4.2337975913     -1.5024413142     1.2516272556
C     3.4347268587     -3.1132337572     -0.3848006614
C     4.6332269441     1.391633151     -0.7796956568
C     4.5218388909     -1.0425624786     -1.0398263116
C     4.9350459203     0.1227407661     -0.3000528585
C     2.3667769275     0.5678758272     -3.574509235
C     2.727053467     -3.1304520473     -1.6442182142
C     2.7707259368     -2.0274146616     -2.5112935272
C     3.7381451688     -0.9529116364     -2.2191603652
C     3.4843924457     0.3833613329     -2.7286657389
C     3.9120380714     1.5239084179     -2.0066074897
C     -2.1283170166     -2.4579942635     -2.9453856086
C     1.5315657826     -3.8955565422     -1.4492976423
C     0.3257165251     -3.611573318     -2.1318585352
C     0.3393280403     -2.5440244314     -3.1143082056
C     -0.9368442833     -1.975493245     -3.5360137851
C     1.5699984014     -1.7736730323     -3.3061361934
C     1.4760792784     -0.4974510667     -3.9022729164
C     3.1865365325     -1.8279775872     2.158222826
C     2.371599135     -2.9995659136     1.8590080622
C     2.5903873466     -3.675563914     0.6274740059
C     1.5194278663     -4.3226021168     -0.0701327203
C     -0.9160209549     -4.0083499212     -1.4676763623
C     -2.1174838514     -3.3964597892     -1.8765554579


