94

 C     -4.4771076277     -1.0976114087     0.2715723419
C     -3.9887465024     -2.3686934109     -0.0838758607
C     -4.4239637556     1.6218547724     1.1060762453
C     -4.273735293     0.6281617529     2.0429848174
C     -4.3484205486     -0.7493758988     1.6430719327
C     -1.1944274636     1.6999164015     3.7311970583
C     -3.2961136219     0.7666569976     3.0832395683
C     -2.4348394408     1.8969792599     3.1106041496
C     -2.5414947346     2.9373338762     2.0892468959
C     -1.324103805     3.642059489     1.6620990652
C     -3.6221746605     2.833296047     1.1796032165
C     -1.3105702628     4.2048012807     0.3703234723
C     -3.4757705785     -1.483238961     2.5087613091
C     -2.8464365011     -2.6766581076     2.1023766923
C     -3.2806469739     -3.1985441232     0.8508819823
C     -2.4511765889     -4.0947522658     0.0956662502
C     -1.2271660511     -4.4802020017     0.5982669666
C     -2.8075550297     -0.5521244882     3.3737534195
C     -0.7507847769     0.3937165741     4.1270542263
C     -1.4735160329     -0.7752888782     3.7978361698
C     -0.7577614241     -1.9773116442     3.3642186335
C     -1.4857214685     -2.9593054202     2.5739544618
C     -0.7373245887     -3.9032429432     1.8402212503
C     -1.489691863     -3.852785464     -2.1482775235
C     -0.226092624     -4.3487003824     -1.6478380064
C     -2.5874047774     -3.7602140634     -1.3126444295
C     -0.096921088     -4.6508683523     -0.2899228025
C     1.0795211762     -4.2518276194     0.4086057396
C     0.8208641025     -3.6369036611     -2.3068783239
C     2.0308988905     -3.326619662     -1.6615869976
C     2.1660868858     -3.6494283546     -0.2437662782
C     3.4383243024     -1.4681647639     2.5350368437
C     2.7459750687     -2.5399698666     1.9451051224
C     3.1086726849     -2.9193742516     0.5800907394
C     4.1029153968     -2.1837004027     -0.0932579837
C     0.6699233522     0.3951111943     4.1207939037
C     1.3959921564     -0.7618759411     3.7813058173
C     0.6880757419     -1.954505259     3.3300982634
C     1.4129786589     -2.8566868807     2.4519011994
C     0.6799464941     -3.8109791282     1.7394933486
C     2.7371801742     -0.5435819956     3.3872165156
C     -3.2472639082     -1.5829307648     -2.3213393921
C     -2.048201343     -1.6478451602     -3.1596489035
C     -3.4727425827     -2.6378430194     -1.4102278195
C     -1.2201970705     -2.786452578     -3.0735837814
C     0.2031303239     -2.6804671524     -3.2138314156
C     0.8386614954     -1.4806236727     -3.5538985813
C     0.0073673931     -0.3177496557     -3.8070404786
C     -1.426963935     -0.4283845795     -3.6404229747
C     -2.1749616121     0.7588784119     -3.5239216041
C     2.0123118885     1.0757440222     -3.5584710453
C     0.6208014972     0.9923642542     -3.7510710868
C     3.9629864468     -1.8555147881     -1.5027934009
C     2.8382547493     -2.2720566495     -2.2377181176
C     2.2433365687     -1.3519864389     -3.2040944547
C     2.8351573387     -0.089176995     -3.366263327
C     -3.4162904959     0.8111467507     -2.773781152
C     -3.8713332891     -0.2971139366     -2.0337094345
C     -4.5221819937     -0.0531697172     -0.7443152892
C     -3.5762056959     2.1579305607     -2.3036200539
C     -4.147181728     2.3883497678     -1.0620397705
C     -4.6357417135     1.2868179589     -0.2899818853
C     -2.4161556667     2.9201107171     -2.7200305354
C     -3.5362521773     3.3522707441     -0.1529878453
C     -2.4101348564     4.0508611811     -0.5425492135
C     -1.8575798314     3.8594490376     -1.8698665148
C     -0.1531303971     2.1715437011     -3.4339148632
C     -1.5562983403     2.0454939359     -3.4696208926
C     -0.431166576     3.9734832679     -1.7775880982
C     0.4304314025     3.2057426588     -2.5909138159
C     3.8519823294     1.7045194028     -2.2856795301
C     2.6133753536     2.1691467296     -2.8423107858
C     1.8016042835     3.1043999473     -2.1654617226
C     4.266055276     2.1618708353     -1.0447179995
C     3.3986634816     3.0368591039     -0.2914749435
C     2.1814916078     3.5088917834     -0.8155395387
C     5.0784869181     -0.0801674856     -0.4486136629
C     4.5745318617     -0.5717207703     -1.7167486958
C     4.0004269861     0.3044739758     -2.6267494186
C     4.9199468299     1.2646788571     -0.1150944815
C     4.3153751384     0.6578574662     2.1838416869
C     4.4601279139     -0.7422329006     1.8370711679
C     4.8020853727     -1.1016846006     0.5404902107
C     4.4906227509     1.6390502138     1.2184062625
C     1.1206087111     1.7006730054     3.7213788883
C     2.3598946289     1.8873994918     3.0899127351
C     3.2452638354     0.776586129     3.1293239124
C     -0.097430519     4.2434993611     -0.4050921678
C     1.1510400515     3.8900066217     0.1322378293
C     1.2194895453     3.4981672285     1.5258286195
C     -0.0287346865     3.3431921295     2.2670463992
C     -0.026791595     2.466118821     3.3746392078
C     3.5243379528     2.7165713089     1.1003290619
C     2.4298530781     2.8429094375     1.9933132999


