94

 C     4.2133163425     2.0685606967     0.1160803076
C     3.4666156323     3.0792932473     -0.5387652836
C     4.5532982091     -0.426175312     1.5051745531
C     4.1604152894     0.6951684675     2.197715447
C     3.9868740685     1.9565419441     1.512016396
C     1.2502109834     -0.6157287279     4.036100249
C     3.1610951446     0.573094985     3.2219761118
C     2.5409702765     -0.6788868012     3.4926293912
C     2.9026579887     -1.8625319155     2.7260383423
C     1.8779811027     -2.8898542485     2.4595658978
C     3.974434413     -1.7205946677     1.8168372705
C     2.051565569     -3.7138552607     1.3414134081
C     2.8931109086     2.6252195303     2.1453665485
C     2.0176638994     3.4855997932     1.4432256681
C     2.4115212088     3.7851809097     0.1130408695
C     0.6043144075     3.5694462883     1.8289289643
C     -0.3320378435     4.1132786173     0.862741524
C     -1.7106673839     3.9189787112     1.0868965063
C     2.3958958943     1.7834593837     3.2039736234
C     0.5437375468     0.6151020532     4.1526627005
C     1.0383651914     1.8163011841     3.5757972194
C     0.11496137     2.7413277005     2.914901891
C     -1.3078421478     2.4849548719     3.0535048829
C     -2.1884167301     3.138417135     2.1708235862
C     0.0813237546     4.3464658957     -0.525663206
C     1.4227743329     4.1489281704     -0.8800383314
C     -2.6596513939     3.7718082031     -0.0096680745
C     -2.231000696     3.8451518294     -1.307512339
C     -0.8565470208     4.1580365964     -1.5803448631
C     -3.5867778649     0.6995049255     -2.6504006476
C     -2.7170979589     2.8925838547     -2.2754396274
C     -3.6508398192     1.8868077298     -1.8995325589
C     -3.8627266396     1.3354882787     2.2800322424
C     -3.4497631837     2.5345481922     1.758086564
C     -3.6748533989     2.8140052998     0.3731850635
C     -4.4773724076     0.3584575455     1.4371179345
C     -4.5667016223     0.5291626644     0.0355459657
C     -4.150198356     1.8208113364     -0.5212786307
C     -0.8555743697     0.3152989521     4.1531932355
C     -1.7926575375     1.239270308     3.6721050963
C     -3.0398259305     0.6756242537     3.2759955173
C     -0.498461968     3.4388862737     -2.7584041251
C     0.8196712947     3.0258709998     -3.0050670663
C     1.7995410221     3.573837246     -2.1309508442
C     3.0661150808     2.9290014785     -1.9256030977
C     3.3437116514     1.7694500685     -2.6033274152
C     -1.6232449845     2.6195061747     -3.1554993937
C     -2.4986500038     0.4369735     -3.5415387515
C     -1.4183698417     1.3333252259     -3.7073205638
C     -0.0593951455     0.8123408007     -3.8781503632
C     1.0505241454     1.7116805868     -3.6153585283
C     2.329426389     1.1532904866     -3.4434165872
C     4.7857447007     -0.3479113202     0.0718038129
C     4.5944671734     0.8661548085     -0.6353323812
C     4.1280555515     0.7305894367     -1.9788400247
C     3.6611617231     -0.5108647209     -2.4894519629
C     3.751122609     -1.7062837052     -1.7487656393
C     4.4091787258     -1.60805157     -0.4896519199
C     3.0916073925     -3.46293727     0.3764418353
C     4.0092529587     -2.4727160091     0.5992066316
C     0.5055035886     -3.2988410806     -2.8298024832
C     1.6337539992     -2.4825764617     -2.9120908048
C     2.7473727674     -2.7393179853     -1.9774775225
C     2.5443622085     -3.6806194883     -0.9459724678
C     -2.29128554     -0.9755498412     -3.5810498475
C     -0.9984248086     -1.5112359978     -3.7299580171
C     0.1543234773     -0.6189224512     -3.856059188
C     1.4696502009     -1.1549226834     -3.5239152432
C     2.527490635     -0.2519819009     -3.3713662269
C     -0.8036987475     -2.8294973937     -3.2219851627
C     -1.0542205821     -4.2241927919     -1.3780116118
C     0.3132419113     -4.2214032524     -1.7398640303
C     1.2823449775     -4.3274976372     -0.7587594355
C     -2.710501678     -3.6290474136     0.2684695662
C     -1.4352317072     -4.1752917447     -0.0075571925
C     -3.2905030643     -1.6045610936     -2.7505366757
C     -3.5201323519     -2.97964743     -0.7709125857
C     -2.9975629672     -2.8143976418     -2.0763993101
C     -1.768082571     -3.448974443     -2.3818686168
C     -4.1382132035     -0.9254707588     2.0307910316
C     -4.0337512173     -2.045590327     1.2612554248
C     -4.2903092055     -1.9593191423     -0.159783047
C     -4.5054612552     -0.686883786     -0.7904864257
C     -4.0465521234     -0.569007872     -2.1221225675
C     -1.0230402064     -1.1027293004     3.9962873423
C     -2.1540353565     -1.6453140253     3.3586443263
C     -3.2203533016     -0.7273676899     3.130828883
C     0.9281580908     -4.2848118405     0.6311077619
C     -0.4082055398     -4.0866195059     1.0330298314
C     -0.6445134866     -3.3281117377     2.2568653774
C     0.5075186337     -2.7454080748     2.9634531194
C     0.2714794341     -1.6743570255     3.8395772636
C     -2.9848957843     -3.0220837837     1.5043380072
C     -1.9677649301     -2.7964915101     2.4907474963


