94

 C     4.1863949675     -1.5987982308     -2.1084185809
C     4.2547724544     -0.2770672757     -2.4870542374
C     4.8871030442     0.6956101307     -1.621403387
C     4.20761856     1.947521074     -1.818263781
C     4.0415588057     2.8141007096     -0.7438500021
C     3.032957982     -2.3740323969     -2.4664208574
C     0.6108489962     4.0303573752     -1.3191502341
C     2.8509396275     3.6018678486     -0.6715474098
C     1.8593635696     3.5146489346     -1.6741128432
C     3.09796103     1.7180378188     -2.7392862363
C     0.6402587     0.3851195487     -3.3733158873
C     0.6579397482     1.7996603094     -3.0916564517
C     1.8986787661     2.4374756916     -2.6597579059
C     -3.0945712658     -0.3040024098     -3.103474367
C     -1.8818112102     0.4003606613     -3.317605996
C     -1.8696517571     1.8277322832     -3.0244385524
C     -0.5961259114     2.5046851623     -2.8509708984
C     -0.5697908723     3.6650848775     -2.0442921037
C     0.577722637     -3.6408610269     -2.0872449779
C     0.6015740558     -2.471443313     -2.8808733323
C     1.8745670502     -1.7925565274     -3.0506542149
C     1.8858405637     -0.3619706482     -3.3277513537
C     3.099271841     0.3399562069     -3.1094587198
C     -1.8926249355     -2.4064376712     -2.681171254
C     -0.6532206538     -1.7637720447     -3.1097041188
C     -0.6363894153     -0.34614723     -3.3754561911
C     -3.0921354944     -1.6861700484     -2.7488629855
C     0.2482780155     4.2967374005     0.0320448417
C     1.1087747756     3.8987667091     1.0796598474
C     2.4541318472     3.6978819168     0.7101542163
C     3.3247226472     2.8593731142     1.475231686
C     1.4014720668     2.2698157223     2.9175756038
C     2.8010594476     2.0654446228     2.5121676896
C     -0.9228431521     3.119488234     2.3105993497
C     0.5509827317     3.2053087862     2.2172280653
C     -1.4697043606     2.1747804859     3.1772732059
C     -0.6401181609     1.2016885857     3.8206073353
C     0.7641010584     1.2254628704     3.6981400761
C     1.4036916699     -0.0227601763     3.8684623096
C     -1.180837734     4.2025613245     0.1298064271
C     -3.1530222934     3.037720664     1.0279933868
C     -1.8071000237     3.6078159105     1.2323205257
C     -4.5788594036     1.0301374898     1.4833237715
C     -3.6331251219     1.9968025205     1.9258433201
C     -2.7759881928     1.585518529     2.9674871812
C     -2.8874328337     3.398799984     -1.4016452972
C     -1.6771566693     3.9973288861     -1.2033441163
C     -3.7074008048     3.0487272397     -0.2793102117
C     -3.0262135616     2.4025665251     -2.4300965809
C     4.3833604547     2.3945261003     0.5953105646
C     2.7219561416     -0.2623714361     3.3596339244
C     3.4600639012     0.7688328767     2.7373935712
C     4.5052062974     0.3289564894     1.8787943348
C     4.9719553945     1.1585601779     0.7919275688
C     2.7995026246     -1.6178732361     2.9407809512
C     3.6533947838     -2.0173760607     1.8919116169
C     4.5977667622     -1.0457689152     1.4573812855
C     5.0995846015     -1.0541551663     0.1001120534
C     4.6231858399     -2.0079729999     -0.7783053448
C     1.825197635     -3.620503308     1.1859481218
C     3.1704889282     -3.0481173576     0.9838815116
C     3.7208064427     -3.0443800027     -0.3251772209
C     1.1955058365     -4.2027967173     0.0787511026
C     1.6876879495     -3.982544019     -1.2535376523
C     2.8973525106     -3.3817953099     -1.4488367148
C     -1.3773324793     -0.0199238245     3.8727956516
C     -0.7382950734     -1.2661363501     3.6864320393
C     0.6662982901     -1.2437193021     3.8048001058
C     1.4938660201     -2.2094856016     3.1479677993
C     -0.5298093399     -3.229163285     2.1826445
C     0.9443011467     -3.1443751606     2.27240353
C     5.2931868157     0.3144738584     -0.3353269085
C     -2.778940139     -2.0927348686     2.4973972448
C     -1.3781040906     -2.3016365657     2.8961283261
C     -3.3058330838     -2.8749363462     1.4532084895
C     -2.4376367147     -3.7047550298     0.6760318353
C     -1.0911422185     -3.9097665807     1.0390710189
C     -0.233908341     -4.2958911464     -0.0156301943
C     -4.9551509852     -1.1665590167     0.7942330549
C     -4.4850156463     -0.3492484292     1.8889273907
C     -3.437220687     -0.7987556688     2.7392667742
C     -2.6971663369     0.2253834072     3.3707957215
C     -4.3671891729     -2.4002199296     0.5818728194
C     -4.6112003738     2.0174764709     -0.741287011
C     -5.2798649841     -0.3098267765     -0.3224343409
C     -5.0848876715     1.0538113792     0.1277991085
C     -4.0295540764     -2.8046699663     -0.7629867081
C     -4.1989321133     -1.9260378713     -1.8270453832
C     -4.8777804823     -0.6764369628     -1.6139790746
C     -4.2481232017     0.3059457548     -2.4705710577
C     -4.1785472051     1.6233268691     -2.077276585
C     -0.6006668175     -4.0143055412     -1.3626037741
C     -2.83873072     -3.5931816725     -0.7032644334
C     -1.850269253     -3.4946501131     -1.7078553669


