94

 C     -3.7500037774     -0.8668254864     -2.3936807065
C     -3.546369796     1.5477260438     -2.3880482874
C     -4.2048293012     0.3466858904     -1.9603980283
C     -3.0010535873     3.5830471299     -1.1912509389
C     -3.8668453342     2.5443327797     -1.4049318205
C     -1.3902524605     4.4732638623     0.2181575674
C     -4.2159077729     2.274964975     1.0156256297
C     -4.6905095956     0.4954936061     -0.61086723
C     -4.5349899947     1.8877059932     -0.2764375745
C     -0.5724672148     4.1931914678     1.3499768199
C     -2.7358903928     4.0440069311     0.1627981474
C     -3.2692456505     3.3510412912     1.2455476017
C     0.8052315629     4.3219095961     1.1402763728
C     -3.9907521527     1.2547647425     1.9985123204
C     -4.1763708235     -0.1191435571     1.6955505254
C     -4.4941173024     -0.5425098984     0.335728481
C     -4.0261191553     -1.858554999     -0.1351243882
C     -3.7602332297     -2.0053188844     -1.5158573372
C     -3.4853863621     -1.0182726371     2.5258154527
C     -1.0383498851     3.2756803485     2.3806833866
C     -2.4167238956     2.95280764     2.3333905673
C     -2.8775987946     1.6879538955     2.8081072829
C     -0.0945186663     2.3581939386     3.0162270628
C     -1.9855008919     0.7691733428     3.3999090621
C     -2.4304234617     -0.5722625241     3.394562825
C     -2.0576088058     -2.7894288971     2.8987377542
C     -3.1785269639     -2.3586950467     2.1132876292
C     -3.3534367683     -2.7870660053     0.77424974
C     -1.2242465192     -3.7711640435     2.4201100013
C     -1.4461370938     -4.3415193143     1.125536911
C     -2.4300587697     -3.8106197178     0.2563592388
C     0.1597429843     -4.7442871304     -0.6905474388
C     -0.1393695547     -4.7500554345     0.649256223
C     1.7442500863     3.6360976001     1.9563967722
C     1.3254793639     2.5667381956     2.8058107691
C     -0.5634937715     1.0651156899     3.5006280497
C     2.2692850615     1.4836030436     3.0389948711
C     1.7773311113     0.1779585149     3.4706358431
C     0.3602424224     -0.0372495642     3.6971784139
C     -0.1416380676     -1.4168668152     3.7197763112
C     -1.5242434804     -1.6458166729     3.6003014238
C     0.8705238478     -4.307127676     1.5854795281
C     2.0686605838     -2.2634782012     3.0519861498
C     0.721801482     -2.5346922496     3.3298578044
C     0.1858264887     -3.6789808633     2.6808946415
C     -2.1177108981     -3.8430830938     -1.1709626955
C     -2.7623085417     -2.9083461561     -2.0102394871
C     -2.6018351741     -0.9369436751     -3.2461813981
C     -1.3370856289     2.5823172636     -2.7910893538
C     -1.7605177861     3.6433188607     -1.9335407224
C     -0.8520933324     -4.2986204356     -1.6233694233
C     0.5584164878     1.0943125122     -3.4973316681
C     -0.1701601241     -3.6591402266     -2.7139405472
C     -0.7111378284     -2.5122677591     -3.3541432172
C     -2.0591660135     -2.2490752685     -3.0742268965
C     -2.2761574884     1.4968828679     -3.032571427
C     1.5309987003     -1.6115539367     -3.6177394501
C     0.1474002856     -1.387733885     -3.7354856858
C     -0.3604992703     -0.0105356519     -3.7023401523
C     -1.7785119252     0.1967373294     -3.4741807648
C     0.5537567602     4.2058754178     -1.3228380757
C     -0.8244864604     4.3269610561     -1.1121832643
C     3.2541905263     3.3747396746     -1.2248104893
C     2.7178342304     4.0570704942     -0.1367996725
C     1.3703336131     4.4808455592     -0.1888924253
C     2.4324868784     -0.5356537699     -3.403778828
C     1.9817001184     0.8038288896     -3.3988667355
C     0.0838008259     2.3815912898     -3.0030649577
C     2.8697843932     1.721948087     -2.8000471584
C     2.4034010619     2.9811114842     -2.3156759405
C     1.0236256944     3.2983101109     -2.3605152411
C     3.8553555153     2.5504069329     1.4194356903
C     2.9850302366     3.5869239457     1.213696031
C     4.202938786     0.350073675     1.9580796999
C     3.5392598886     1.5449148804     2.3949012522
C     3.7534326916     -0.8686946959     2.3820679253
C     4.2055444512     2.3010713116     -1.0031032261
C     4.6879447352     0.5113108577     0.6097355947
C     4.5263454263     1.9053476184     0.2859637608
C     3.4893973846     -0.98367974     -2.5384522376
C     3.7686222309     -2.0003874947     1.4955610172
C     4.0338411805     -1.8419132658     0.1159937021
C     4.4960751139     -0.5202718133     -0.3447733081
C     4.1764616074     -0.0879126955     -1.7013230543
C     3.9848334164     1.2874458666     -1.9937657656
C     2.4463100274     -3.7978812545     -0.2904349356
C     1.4647062334     -4.3264116546     -1.1636649722
C     1.2403027017     -3.7471514281     -2.4538444248
C     3.365206142     -2.7663726173     -0.8004653908
C     3.1884029422     -2.3285459879     -2.1361924053
C     2.0693610842     -2.7581505681     -2.9249348506
C     2.605601957     -0.950342252     3.2339884339
C     2.774658225     -2.9115202014     1.9830024099
C     2.1341332171     -3.8426173581     1.1365913008


