94

 C     1.5329463706     2.7283038279     -2.9959952814
C     2.7379913758     2.5616614384     -2.2952943696
C     3.478270451     1.3958386137     -2.6395310797
C     4.4701174095     0.8687470196     -1.7570638115
C     4.6668197274     1.4679382032     -0.5220447543
C     0.5019416655     3.5560326105     -2.5097440362
C     0.5222884121     4.0677745176     -1.184074309
C     1.7074620714     3.8157604088     -0.3734295704
C     2.847661507     3.1475831021     -0.967326266
C     3.850376802     2.5834818711     -0.1124118368
C     0.3126245282     4.0654575499     1.6533168358
C     1.5763361825     3.8118353871     1.0907058006
C     -0.8643873801     4.2816904319     0.8453370237
C     -0.7806066891     4.3082104255     -0.5592890467
C     -1.987774682     3.9773443459     -1.2462650471
C     4.714570935     -1.3697935029     -0.7820461262
C     4.9172108288     -0.7519101215     0.5272518564
C     4.4763368275     -0.5775369502     -1.8878019957
C     4.895531731     0.6296409856     0.6461588163
C     4.2307742822     1.2265015821     1.759243529
C     3.5509480283     0.4286999005     2.7171159531
C     2.5054895953     1.0639995597     3.4277106481
C     2.521214033     3.0490726353     1.9116147221
C     3.6458930844     2.4710438611     1.2904022022
C     2.0807087722     2.4116300928     3.102248982
C     2.7569890944     -3.481724596     1.3147773304
C     3.9768947329     -2.583550062     -0.6110099312
C     3.8151590671     -2.7677879949     0.8202684153
C     3.4944198024     -1.0154459526     2.5606261077
C     4.2608402286     -1.5775125312     1.5041108079
C     2.0146841952     -2.9909873039     2.4492570217
C     2.2999771825     -1.7355569156     3.0215320158
C     1.8495875489     -4.1341498727     0.4175877277
C     1.9195458084     -3.8676499503     -0.9822136596
C     2.943905436     -2.9691398655     -1.5000457373
C     2.6126687712     -2.070652812     -2.6134982113
C     3.4180127041     -0.9332350618     -2.7971055981
C     0.7112016436     -3.9816847077     -1.6911507944
C     0.5905657367     -4.2322304086     1.0880721798
C     -0.6194498924     -4.3442189102     0.3772684551
C     -0.5087954042     -4.340763881     -1.0445617594
C     -2.7856810325     -3.5269056437     -1.2586792677
C     -1.5785119358     -3.8056482665     -1.8345317171
C     1.369801129     0.3498689089     3.8964659956
C     1.1800499071     -1.023106902     3.6143696743
C     -0.1827299884     -1.5090874889     3.4960139281
C     -0.4330437993     -2.7631100658     2.8154153626
C     0.6795299422     -3.4753258933     2.317988059
C     -1.7345605317     -3.0788476183     2.2457671004
C     -1.837764913     -3.8645052238     1.0105944664
C     -2.9625667885     -3.6502447906     0.1777564536
C     0.3856902065     -3.0700877443     -2.7714817446
C     1.2454490418     -2.036888145     -3.1490331282
C     0.6366298737     -0.8114048548     -3.6467467416
C     1.4983613194     0.3489013312     -3.7312155775
C     2.8467933419     0.2859263794     -3.300263725
C     0.9267671802     1.6295793578     -3.7347458405
C     -1.0343414891     -2.929998803     -2.8395539959
C     -3.0064505709     -1.4584994191     -2.6369777072
C     -1.6628295037     -1.7109678752     -3.1743236678
C     -0.809511388     -0.6255282807     -3.6198268912
C     -4.4934513143     0.2119729236     -1.5793460783
C     -3.5109871393     -0.0964394836     -2.5683976222
C     -2.7005220693     0.9879046121     -3.0985050931
C     -1.3738581375     0.7175807424     -3.6515497832
C     -0.4770882023     1.8113162868     -3.757369529
C     -3.5644160401     -2.4166740454     -1.7439784844
C     -0.7294206845     3.0763877326     -3.1156825761
C     -1.9337215762     3.3008406804     -2.531640628
C     -2.962181721     2.3016800727     -2.6118334807
C     -4.4175463701     -0.7072628418     1.8373041828
C     -4.9265916773     -0.0575257564     0.7138623457
C     -4.640015965     1.3192672002     0.5033377305
C     -4.520270721     1.5005084548     -0.9387840289
C     -3.7818993252     2.5227090829     -1.4594588438
C     -3.9638105041     -2.0786167925     1.7447144325
C     -4.0149737784     -2.7517958882     0.5339582477
C     -4.4357589001     -2.0354816332     -0.6658298188
C     -4.8835505652     -0.7378822742     -0.5769910475
C     -1.2859744514     -0.5630395587     3.6263795085
C     -2.5589724022     -0.956208569     3.2134732825
C     -2.8013285678     -2.2219792147     2.5773394391
C     -1.4968884207     3.0748035128     2.7329538077
C     -0.1147797637     3.407365719     2.8591474643
C     0.7370110022     2.5537568753     3.5366059662
C     -2.000236601     1.8313557252     3.1465130271
C     -1.0562337277     0.8695882983     3.7467592541
C     0.2570644048     1.2782928857     3.975943856
C     -3.1251735709     3.4699806853     -0.570406662
C     -3.8097355885     2.058465541     1.3853268572
C     -3.1070297923     3.216336518     0.8342768916
C     -1.9891749408     3.7135613956     1.5214764868
C     -3.5475230044     -0.0018375875     2.7220148484
C     -3.2325324103     1.3587227684     2.531231803


