94

 C     -4.3201697876     1.974938696     0.7711210891
C     -3.4219825231     2.8088129351     1.4801973162
C     -2.8236352895     2.2945652243     2.6586330523
C     -2.6699655916     3.7495296061     0.7282119409
C     -2.6375140452     3.6656223079     -0.7449143404
C     -3.3576575212     2.6688488797     -1.4354682911
C     -4.3474851217     1.9650396718     -0.6811684661
C     -1.4152813574     4.2088239118     1.1695804352
C     -0.7439184853     3.6049406676     2.287553654
C     -1.497416766     2.6731732877     3.0262657975
C     -0.8622629192     1.520699843     3.609850213
C     1.3539092787     2.3375983875     2.9106501254
C     0.5150785424     1.3067967224     3.5274197396
C     -0.6628456691     4.566415309     -0.0152356871
C     0.6869857205     4.5634553997     0.0193589269
C     1.4081834287     4.1000662133     1.2004099941
C     0.7094328547     3.4637948877     2.2676398648
C     2.7139999451     1.9960005643     2.5527544997
C     3.1977742022     0.7125306528     2.9284173702
C     -3.1875871759     0.7382933006     -2.9421813019
C     -2.6989857714     2.0179982245     -2.5605227301
C     -0.689025154     3.4768085362     -2.2687334482
C     -1.385794416     4.1112143718     -1.1983744628
C     -1.7993707431     0.43556987     3.6030722059
C     2.3184403775     -0.3155105801     3.4105725254
C     0.9598292093     -0.0743349499     3.632613221
C     0.0297171404     -1.1898908311     3.5300894691
C     -1.3896095067     -0.9136888613     3.4858600594
C     0.5277096227     -2.4569555642     3.0264882555
C     -0.4078404906     -3.3683584249     2.5094085469
C     4.0280402728     -1.3609351803     2.2399606278
C     2.81078206     -1.5972411543     2.9608148288
C     1.9197503565     -2.6256943699     2.6211024413
C     4.3126708368     -2.1339090382     1.1241511258
C     3.4418439506     -3.2073894905     0.7643706283
C     2.2667999845     -3.4996705979     1.4952672046
C     4.8168576711     0.664371862     1.0819435059
C     4.2630938728     0.070187132     2.2152878232
C     2.6586083643     3.6518831367     0.7447035384
C     3.3750310712     2.649593809     1.4305846901
C     4.3619948624     1.9452637265     0.6724875106
C     -1.807613584     -3.0780186184     2.463419645
C     -2.3322848446     -1.8409377192     2.8887114187
C     -3.5713018693     -1.3586349405     2.2634658356
C     -2.3417062073     -3.7636764293     1.3179201834
C     -3.4315747956     -3.2555318065     0.6589765029
C     -4.1179399629     -2.1123370273     1.1913962162
C     -1.2608444087     -4.3507205646     0.5811819481
C     -1.2085932027     -4.2006504513     -0.8359093413
C     0.0740659484     -4.2071585236     -1.4131512433
C     1.2004475417     -4.2091543557     0.7999991056
C     -0.0821802733     -4.2132551154     1.3772296946
C     1.2521293263     -4.352994883     -0.6178205873
C     -3.8915769629     0.0648978991     2.3103562503
C     -3.0202632835     0.9121563871     3.0335322385
C     -4.7774808211     -1.4692555383     0.0766735884
C     -5.0301691284     -0.1179600579     0.0968908464
C     -4.6391783703     0.6614599869     1.2423572023
C     -4.3127688422     -2.1119032295     -1.1510194845
C     -4.8069306885     0.6881220113     -1.0961861394
C     -4.2549039088     0.0968196142     -2.2324690913
C     -4.0251615537     -1.3350830291     -2.2633287108
C     -2.2721548476     -3.483942213     -1.5280479696
C     -3.4460410321     -3.19032766     -0.7959018936
C     -2.8088157701     -1.5729023999     -2.9852585165
C     -1.9217025936     -2.6063075425     -2.6500311484
C     0.4031082226     -3.3585331264     -2.541580684
C     -0.5291209697     -2.4409796913     -3.0545229913
C     1.394028818     -0.9032400527     -3.5067757903
C     -0.0262926538     -1.1738109087     -3.5522714371
C     -0.952421732     -0.0541496766     -3.6498744957
C     -2.3115081168     -0.2912559465     -3.4293201393
C     1.8091346955     0.4450755974     -3.6177525428
C     4.1179624047     -2.1229111672     -1.2180363506
C     3.4269836625     -3.2659970596     -0.6908307687
C     2.3353315647     -3.7669510455     -1.3519588752
C     3.5739928794     -1.3620532726     -2.2866621941
C     2.3330561226     -1.8367483984     -2.9139983495
C     1.8036624541     -3.0739346036     -2.4944500859
C     4.6493194533     0.6489255607     -1.2565034138
C     5.0374137768     -0.1369129612     -0.1148976212
C     4.779845542     -1.4876487235     -0.1007772758
C     3.0310062413     0.9142744419     -3.0464079129
C     3.8995411455     0.0603143521     -2.3268225406
C     2.6911302474     3.7423790532     -0.7277217231
C     2.8394996825     2.2959639911     -2.6648535667
C     3.4397268976     2.8024213972     -1.4841566389
C     4.3347555927     1.9619924234     -0.7786440439
C     -0.5022377476     1.3250596947     -3.5382707821
C     -1.3373825338     2.3562761822     -2.9166506786
C     0.8754918962     1.5342070717     -3.6197733243
C     1.5149792285     2.6813644862     -3.0309950463
C     0.7647336807     3.6126224881     -2.2877750566
C     1.4381083891     4.2085580059     -1.1670857196


