94

 C     -4.7190228164     -1.1017958518     1.2027722384
C     -3.9379483578     -2.0198888577     2.0138596501
C     -4.8563238942     -1.3156560146     -0.1579406745
C     -3.4003694492     -3.160650046     1.4512094146
C     -2.1029963374     -3.5925781189     1.8500551672
C     -3.7046852062     2.4597076104     1.2681214271
C     -4.4163527444     1.340236109     0.7850545852
C     -4.4769737242     0.2287693403     1.6775399549
C     -3.5749355563     0.1267030295     2.7927958653
C     -2.7358378252     1.1762549702     3.1613524851
C     -2.9657950408     2.4138335539     2.4775053416
C     -0.7261332409     3.1724306191     2.982409587
C     -1.9099700795     3.3783928897     2.3493998853
C     0.6679411246     -3.91436168     1.6343422938
C     0.1811335073     -2.9918199804     2.6003787591
C     -1.2647993512     -2.8144260212     2.7047831421
C     -1.8039052568     -1.5755565762     3.2374640698
C     -3.1500779094     -1.2480640099     2.929933734
C     0.5350633478     -0.7300401515     3.6188793384
C     -0.8989993057     -0.5012206273     3.6446762796
C     -1.4138133639     0.8606026003     3.6921199622
C     -0.491917934     1.9367039297     3.7273077013
C     -4.5025781211     1.117189604     -0.6594068904
C     -4.75709184     -0.2098894916     -1.0845531942
C     -3.0499139001     3.4055195155     0.3590332223
C     -3.0527142967     3.1758312232     -1.0379159854
C     -3.7878563104     2.0213443774     -1.5726943451
C     -1.920137011     3.6815528488     -1.7342339662
C     -0.758814203     4.1769639335     -1.0513682542
C     -0.7036040757     4.2607170887     0.353437319
C     -1.9304410473     3.9647291887     1.0242445182
C     -1.4544288917     3.0501563779     -2.9421216005
C     -2.1349942908     1.9629119212     -3.4449233683
C     -3.3430731983     1.4959509422     -2.8078449241
C     -3.4179327626     0.0909168175     -3.092653238
C     -4.1310185893     -0.738976748     -2.2699397302
C     -0.0281440992     3.0793955541     -2.9725829053
C     -1.3977575649     0.8296287534     -3.932023733
C     -0.0011990816     0.7986372081     -3.9025501419
C     0.7149729889     1.9962433756     -3.4682974098
C     3.7632163177     2.3464256437     -1.3037307525
C     2.5791128021     2.7359921321     -1.9459858022
C     2.0912416932     1.9096172577     -3.0495505085
C     2.7677619994     0.7168224869     -3.3570588875
C     0.5212105031     3.5959524209     2.3838298953
C     0.5753556472     4.0383474222     1.0184748833
C     2.8916309948     3.0916305999     0.9168940344
C     1.7574167597     3.7168111893     0.2548272439
C     1.643143445     3.5703340395     -1.2001953436
C     0.4124723911     3.8232426222     -1.809502718
C     3.9218111732     2.5237242309     0.1286362477
C     -3.5420359513     -3.3888420734     0.0113058474
C     -4.2234048947     -2.4778808462     -0.7687248897
C     -3.6663195508     -2.080495401     -2.0314182241
C     -2.1704796021     -0.353168264     -3.6659578322
C     2.0172112848     -0.5006973213     -3.6214947548
C     0.6222071873     -0.5041750193     -3.763462526
C     -0.1296991762     -1.674479419     -3.3400075305
C     -1.58150359     -1.5781362327     -3.2833558246
C     -2.3671311349     -2.4885233561     -2.4492174651
C     0.555744225     -2.7329722123     -2.6265397606
C     -1.6763397029     -3.4859842945     -1.6578260889
C     -2.3201593791     -3.9528513025     -0.4730114522
C     2.7131301388     -1.595002501     -3.0482100261
C     2.0014630744     -2.6581571347     -2.4456879506
C     -0.2217021963     -3.6105113933     -1.7592620052
C     0.4561619276     -4.2324493686     -0.6800694474
C     -0.197571361     -4.4003696772     0.5909892654
C     -1.5380044541     -4.2563000434     0.6979296045
C     4.7502801578     -1.3687340829     0.9327449951
C     3.9644098803     -2.5485873685     0.70173758
C     2.9083966081     -2.9090387189     1.5882182176
C     1.9488844035     -3.773535903     1.047749605
C     4.4450364711     -0.5660966277     2.0122929283
C     1.8175573989     -3.9561683057     -0.3821741325
C     2.6387784969     -3.2677094729     -1.2816762903
C     3.8257763447     -2.7170230646     -0.7191426643
C     3.9658396025     -1.0908455489     -2.5132710273
C     5.1046233993     -0.78119552     -0.352836735
C     4.5204654559     -1.6370550554     -1.3699587941
C     4.4851004454     0.8772887975     1.8663889558
C     4.7438832849     1.4528353252     0.6146461086
C     5.0889265557     0.5976467611     -0.5098610419
C     4.4939715925     1.1753097147     -1.6982453049
C     3.9724372876     0.3471536004     -2.6908706426
C     1.5201998812     2.7798268267     2.9279255647
C     3.4679884136     1.4275779802     2.6829304737
C     2.7431041676     2.569591068     2.2692228477
C     2.4898465461     -2.0194362554     2.6663103825
C     1.0913291757     -1.9720627384     3.0819165077
C     3.3254524747     -0.8894700812     2.8836403552
C     2.7772890351     0.3215024757     3.3464815431
C     1.4215855733     0.4124792897     3.7327270808
C     0.8853824848     1.7186835125     3.7226106749


