94

 C     -2.6540051338     3.5626520293     0.5061934675
C     -2.7476022077     2.9430620361     1.7643086526
C     -3.8012533676     1.9836453353     1.9039072819
C     -3.6679946227     0.8945278854     2.8362373377
C     -2.586278231     0.8542079887     3.6632755725
C     -1.4142616425     4.105669323     0.0505354286
C     -0.1939785566     3.9452224728     0.7564340937
C     -0.2319576846     3.2669701358     2.0506655326
C     -1.5269792045     2.8318403873     2.5618492337
C     -1.5405561621     1.8534139056     3.5871357688
C     2.258380537     2.8708530086     1.867543578
C     0.995533116     2.6979601727     2.5848250068
C     0.9211784209     1.652938752     3.5990229037
C     -0.3472224665     1.2659003076     4.0674792249
C     3.352665559     2.0258799785     2.203087463
C     2.2792941092     3.5069499657     0.5554017867
C     1.0407327414     4.0082640672     -0.0115316298
C     3.3406086965     3.1812634897     -0.3371582717
C     0.3291138443     -1.0825198528     4.2982596207
C     -1.9745992211     -0.4226548576     4.0032635325
C     -0.6380062907     -0.1228466343     4.4089086386
C     1.6811849427     -0.6929755531     4.0419022922
C     3.1843954178     0.8784625463     3.053012956
C     1.9906884702     0.668093239     3.745468048
C     0.0462948885     -2.312232867     3.6066496217
C     -1.2070955588     -2.5560633504     3.0248091175
C     -2.2957555332     -1.5987174227     3.3006905229
C     -3.4633147341     -1.5457587239     2.4158197497
C     -4.175982324     -0.3186781443     2.2481903
C     -3.5338661196     -2.4736611029     1.3639397351
C     1.2727152233     -2.7214985136     2.9839894342
C     1.29261429     -3.4129758046     1.7621027475
C     0.0071122426     -3.7828458304     1.1726849418
C     -1.2227988706     -3.3768103632     1.8277997626
C     -2.4290125314     -3.3744380031     1.0710208582
C     1.1656763711     -4.0935716567     -0.9674185231
C     -0.0418558756     -4.1378911125     -0.2432489807
C     3.9682773558     -0.2156303895     2.5377595228
C     3.4272105523     -1.5325873957     2.5082782297
C     2.3011292261     -1.7556030907     3.3259756458
C     3.5896232278     -2.3628957162     1.3267208482
C     2.5145782072     -3.3054035433     0.9617360267
C     2.4196104552     -3.7032748748     -0.3762129439
C     -4.1867576786     -2.1629519683     0.1300673674
C     -4.7199095642     -0.859172868     -0.1194034397
C     -4.722865482     0.0502734874     0.9844457074
C     -4.5972233449     -0.3129213606     -1.4283688123
C     -3.5203384836     -2.8937722612     -0.9101406319
C     -2.1784226663     -2.6820374722     -2.9101546612
C     -3.3488784609     -2.3202435495     -2.1942473085
C     -3.8811864054     -1.0235628573     -2.4454343776
C     -1.2781561903     -4.0089891813     -1.0085824519
C     -2.4638635366     -3.6749591095     -0.3097075851
C     -1.2270902536     -3.6299653541     -2.3793295439
C     -4.3646200123     1.0986574615     -1.6235735016
C     -4.3013385317     1.99595586     -0.5187584354
C     -4.5230813336     1.4789540751     0.7847276504
C     -3.428064741     3.1043438424     -0.6318962305
C     -3.4593339453     1.2371581247     -2.7170563153
C     -2.5157635983     2.2874599981     -2.7953717087
C     -2.6259820634     3.2966493403     -1.8002262954
C     -0.310334686     3.9303725892     -2.1042494457
C     -1.4631329916     4.0341601477     -1.3893586246
C     -1.46495731     -1.7254500207     -3.7015978705
C     -1.8557259028     -0.3675120018     -3.7370879085
C     -3.1425723434     -0.0685325742     -3.2220154743
C     -0.8158153405     0.6611198638     -3.7911314085
C     -1.2064830655     2.0127048765     -3.4123460446
C     -0.1796353757     2.931002877     -3.1603698507
C     0.9408848133     4.0648570072     -1.4319481933
C     1.8950944069     3.4025549483     -2.2650829819
C     3.6930844225     1.7804823077     -2.2071923976
C     3.0819203182     3.0030596097     -1.7455240342
C     -0.0806585796     -2.0982954837     -3.7193200473
C     2.2551920388     -1.5602159113     -3.16730412
C     0.9549908908     -1.1499405312     -3.7095871773
C     0.5862769203     0.2714656167     -3.7850931475
C     4.2620478325     -0.9231289274     -1.8563702912
C     3.2538128656     -0.5639071021     -2.7973088172
C     2.9436540532     0.8442445241     -2.9725651794
C     1.6154843961     1.2445801026     -3.4733113879
C     1.1913243376     2.5681780745     -3.2214661857
C     4.1420439549     -2.1332695558     -1.0790222274
C     3.188955959     -3.0511077221     -1.4043161304
C     2.341851961     -2.8373467531     -2.5495792998
C     1.190003895     -3.6531434511     -2.3429823116
C     0.020516143     -3.341430745     -2.9898982032
C     4.7390451142     0.2937850896     1.4462343529
C     4.9731388717     -0.518552947     0.347985456
C     4.4272026782     -1.8564461749     0.3048438388
C     4.5967659749     1.3805676979     -1.1683800413
C     4.3566264254     2.2309681232     -0.0067656425
C     4.3903390442     1.6914721537     1.262468934
C     4.8816030133     0.0405058612     -0.9929616996


