94

 C     -2.8128314686     0.1786929056     -3.3520414419
C     -1.5177731571     -0.1039040047     -3.8395002843
C     -0.691274033     1.0263147569     -4.0342157203
C     0.7274922785     0.9115475086     -4.1237854279
C     1.3543712778     -0.3523666468     -4.0514105835
C     2.7142922967     -0.3289662318     -3.6461264073
C     3.2912268245     -1.4529738257     -2.9510251169
C     2.5338764774     -2.5846802839     -2.7504460742
C     -0.9253850724     -1.4142785908     -3.613336418
C     0.524022998     -1.5407097074     -3.7951283048
C     1.170623465     -2.6507466415     -3.2263041653
C     -3.5671747046     -0.810267032     -2.6417066418
C     -2.9851280049     -2.0415411901     -2.2919670396
C     -1.6578228569     -2.3770901087     -2.8246403888
C     -1.4153909927     -4.0765749267     -1.0091132048
C     -0.9260303693     -3.464382709     -2.190498993
C     0.4708685282     -3.5637437897     -2.381939872
C     -2.6518331808     -3.6306516898     -0.4125092318
C     -3.4477709316     -2.6510892333     -1.0396254181
C     -4.2899689052     -1.9119311338     -0.1648916219
C     1.3016189804     2.0809168793     -3.5420718174
C     3.3185577977     0.8590375736     -3.110277383
C     2.5701381483     2.0586437628     -2.9411929628
C     4.2620606753     0.4429211003     -2.1034540869
C     4.5085473184     1.269179653     -1.0353035374
C     4.0134820784     -1.0669680839     1.7690635473
C     4.6653533396     0.6950466487     0.2767737599
C     4.4776392676     -0.7014743434     0.4874200676
C     3.360273619     -2.7869773433     -0.4179634762
C     4.1741593255     -1.5852411972     -0.6357836449
C     4.1714766108     -0.9925122035     -1.9257093322
C     2.6186412437     -3.2884949052     -1.509648659
C     3.8353390267     2.5481367666     -0.9115232564
C     2.7840870098     2.9138959236     -1.7764577302
C     1.6583695309     3.6946890891     -1.2293531682
C     3.7703514773     2.8245195059     0.4940159052
C     2.7612620538     3.6055826123     0.9942144898
C     1.7258797885     4.0875620723     0.1164626847
C     4.2124215423     1.6662908019     1.2322461586
C     3.5473941118     1.284315588     2.4247269002
C     3.5538157923     -0.097355242     2.7147329593
C     0.3246323101     3.6221942488     -1.8317081918
C     0.2164874276     2.9013460731     -3.0378303043
C     0.5357194185     4.2771211354     0.9108379562
C     -0.7579122194     4.1261971374     0.3770563019
C     -0.8911624447     3.8344573084     -1.0419933395
C     -2.1630040045     3.3240026017     -1.5230936497
C     -3.2428276561     3.1517779697     -0.6029172169
C     0.8415071742     3.8490980712     2.2513348098
C     -0.1384325309     3.3036019239     3.0622988448
C     -1.4840189188     3.2960381677     2.614713695
C     -1.8169420109     3.7457423066     1.3116584004
C     -3.0348458171     3.2656967637     0.7960976574
C     2.4539279736     2.0956403622     2.9525917037
C     2.1643806448     3.3013912164     2.2771671962
C     0.1224760814     2.0851813083     3.7756861082
C     1.3607907339     1.4404801029     3.6954545752
C     -2.2037841448     2.5030712638     -2.7261872388
C     -1.0045819935     2.2936972938     -3.4336835728
C     -4.2689733946     2.1460485301     -0.7998563074
C     -4.2186875452     1.3130708028     -1.9023430705
C     -3.1815565736     1.4869848238     -2.8730590341
C     -4.5988088288     1.585079194     0.4987755062
C     -4.490955647     -0.108398928     -1.772333152
C     -4.8226009651     -0.629692832     -0.5386105591
C     -4.8536905561     0.2211162568     0.6340273236
C     -2.1262778973     2.1254565298     3.1782159045
C     -3.2531040323     1.5292568367     2.5700904211
C     -3.8196087745     2.2472237781     1.4828243457
C     -1.1377481786     1.3540585766     3.8277827839
C     -1.1847954779     -0.0617065014     3.8465639766
C     -2.3429051554     -0.7267537256     3.2720225557
C     -3.4005173778     0.083086013     2.6587152109
C     -4.2650050548     -0.5224888821     1.713373732
C     -1.0315303976     -2.8039261311     3.2196190994
C     -2.2366807628     -2.131048248     2.9194988844
C     2.456785405     -2.0900309548     3.1345155204
C     2.5126382247     -0.7043104553     3.5088939376
C     1.3614878618     -0.0028504091     3.9052219309
C     1.2879846263     -2.7909436428     3.2803784737
C     0.1002770239     -2.1236660148     3.7613655932
C     0.0883003688     -0.7395583685     4.0108931928
C     1.6469762127     -3.9200787932     1.106096405
C     2.8774429267     -3.1316889818     0.9252655295
C     3.2852789218     -2.2997152989     1.9854798252
C     0.9245994983     -3.7785072311     2.3165943128
C     -1.2262487091     -4.2794159382     1.267864876
C     -0.5360144386     -4.5134668964     0.0279255783
C     0.8754644825     -4.3315905612     -0.0659023343
C     1.359038531     -3.9790737671     -1.3308474558
C     -0.5208222872     -3.8703203307     2.3690580526
C     -4.023454001     -1.8686136178     1.2447350122
C     -3.0508052334     -2.6816719236     1.8382227608
C     -2.5163320255     -3.7023202469     1.0014123709


