94

 C     -3.1586569466     -1.075196152     3.0753427865
C     -3.9063657598     -0.0200703227     2.6223224966
C     -3.3993914981     1.3169924229     2.7552989833
C     -1.8437142653     -0.8455297012     3.612643373
C     -1.2521771002     0.443271861     3.6193950926
C     -2.1257268015     3.592547264     1.7971845438
C     0.6572120362     3.8325225712     1.9073110761
C     0.0400177555     2.8744674326     2.7652024536
C     -1.4161077993     2.7769684784     2.7258547928
C     -2.0704540836     1.5741213947     3.1956150986
C     -3.3204371769     -3.4215128597     0.2376637689
C     -3.8756349644     -2.4814172047     1.1471742001
C     -3.1768011116     -2.3417526566     2.3771263543
C     -1.905281432     -2.95020588     2.5955296876
C     -1.3102738744     -3.8187463162     1.6597250817
C     -2.1019172444     -4.099439633     0.5038450632
C     -0.0902053301     -4.4242600165     -0.8245389364
C     -1.4390661578     -4.3035955489     -0.770141419
C     0.7193051064     -4.3695150011     0.3795512116
C     0.1478545638     -3.8819794893     1.5910874691
C     0.8499200483     1.7634277797     3.2275701094
C     0.190517704     0.5155802676     3.590035366
C     0.9634117357     -3.0139520993     2.4166087845
C     -1.0885705103     -2.0336609039     3.3589147901
C     0.9399353673     -0.7275989177     3.5281561641
C     0.2983579213     -2.0009857969     3.234720292
C     -4.6192026172     -1.3253253286     0.6166812185
C     -4.6727967142     -0.1325639656     1.3901324255
C     -3.365768436     -3.1619569727     -1.2034840108
C     -4.006018996     -2.0537123966     -1.6892218466
C     -4.7056137918     -1.1448752716     -0.7914672412
C     -2.1356099683     -3.581340595     -1.7994830108
C     -3.9104496083     0.0348325626     -2.6216956507
C     -4.6747725093     0.1487909029     -1.3883226078
C     -4.6176619048     1.3414600747     -0.6149632698
C     -4.7021776843     1.1611949081     0.7933238843
C     -3.1615169742     1.088445098     -3.0759857818
C     0.6467612903     -3.8271364599     -1.9141969841
C     0.0299796852     -2.8676332794     -2.7711806894
C     -1.4258940646     -2.7672275269     -2.7293803073
C     -2.0785961346     -1.5631153229     -3.1980562423
C     -3.406260439     -1.3033103662     -2.755471235
C     -1.8478114854     0.8562280793     -3.6154326349
C     -1.2587410003     -0.4338823459     -3.6232043044
C     -3.1760837427     2.3550769839     -2.3777535415
C     -3.8727132936     2.4960986994     -1.1466328462
C     -3.3142340058     3.4350229456     -0.2379981233
C     -3.3577923611     3.1755881904     1.2031664835
C     -3.9994172401     2.0686461399     1.6899325477
C     0.2971591978     2.007174727     -3.2408352775
C     -1.0900333264     2.0426083174     -3.3627914538
C     -1.9037504083     2.960910593     -2.5980967558
C     0.9655731238     3.0187335707     -2.4239292669
C     -1.30550283     3.8281987051     -1.6632107023
C     -2.0946915029     4.1105472952     -0.5061126216
C     0.9356539193     0.7325825981     -3.5354017526
C     2.3212169692     0.6759407849     -3.3411782193
C     3.0008299291     -0.5606944952     -3.1205902306
C     1.972759113     -3.6743424536     -1.4510563919
C     0.1836352432     -0.5090476781     -3.5962272701
C     0.8411991472     -1.7584347811     -3.2347096988
C     3.9694152788     -2.3809064394     -1.2121007739
C     2.8361043208     -2.718551001     -2.0038752248
C     2.2680013562     -1.7551228885     -2.9411263406
C     3.0464373954     1.7393615787     -2.7037368938
C     2.3626755671     2.8244176034     -2.1016594481
C     0.1529187927     3.888489321     -1.5968532783
C     0.7271692738     4.3746162132     -0.3864422974
C     -0.0801878078     4.431282569     0.8190305152
C     -1.4294723229     4.3134229927     0.766800574
C     4.6838433678     1.1597776212     1.4146950178
C     3.9758292739     2.3793407148     1.1994953317
C     2.8446485917     2.7194946348     1.9933861117
C     1.9824074545     3.6768673006     1.4418412755
C     4.2078957849     0.2670589371     2.3708606419
C     2.0195565184     3.9999897403     0.0211338959
C     2.9047103294     3.3280008565     -0.8461760524
C     3.9980050567     2.674957779     -0.2240843758
C     4.2214664994     1.1571962501     -2.112286316
C     5.1605762678     0.6741618095     0.1265601067
C     4.6952120743     1.6171257301     -0.8841952254
C     4.2224829122     -1.1592351971     2.099684505
C     4.6935240172     -1.6203247883     0.8707089848
C     5.1590601024     -0.6782787909     -0.1408094173
C     4.6793312042     -1.162944085     -1.4282329835
C     4.2035858869     -0.2690201241     -2.3837097494
C     2.8994891538     -3.3271486003     0.8357082935
C     2.0115265887     -3.9975502084     -0.0300819094
C     3.9932285663     -2.676584554     0.2119501546
C     2.2761642328     1.7572683059     2.9317034872
C     3.0068144989     0.5613264083     3.1099946497
C     2.3252359567     -0.6736679753     3.3317414113
C     3.0474919542     -1.7388609789     2.6929633283
C     2.3605150917     -2.8223836442     2.0920167266


