94

 C     -2.7456729066     -3.6658848346     -0.438578072
C     -3.357811204     -2.7470243879     -1.3208605037
C     -4.3655978527     -1.9072381045     -0.7631762606
C     -4.7182932412     -0.6835841826     -1.3793420802
C     -4.0322532468     -0.2702650862     -2.5298630403
C     -1.4853379178     -4.2173618698     -0.717902195
C     -0.6802006064     -3.7801311176     -1.8150651548
C     -1.2147640085     -2.7397283341     -2.6639665301
C     -2.5784950883     -2.2875319271     -2.4657950188
C     -2.959979829     -1.0515625538     -3.047181398
C     1.0795653898     -2.1752180904     -3.3550823561
C     -0.2774654699     -1.8613125092     -3.3721550069
C     1.6143156276     -3.2305227901     -2.5407422088
C     0.760453568     -3.9797780271     -1.6996940073
C     1.3204942639     -4.3976214277     -0.4549545871
C     -4.6672688828     1.6041749759     -0.4987423283
C     -4.0334258109     2.054453002     -1.7385098729
C     -4.995869813     0.2820961296     -0.3277534401
C     -3.6912583968     1.1293290686     -2.7035175588
C     -2.3912645389     1.2116292468     -3.3169164108
C     0.9491071919     2.8443033145     -2.6966601147
C     2.3062867036     2.4495201877     -2.7499556133
C     -0.0483819411     1.9280680337     -3.2339202324
C     -1.4522467887     2.2126815852     -2.9916021034
C     -1.8493174792     3.2409094768     -2.0278106301
C     -3.1308416545     3.122877765     -1.4272229406
C     -0.6344029927     -0.4748179696     -3.6807683882
C     -1.9720456231     -0.1346012674     -3.5792001915
C     2.0903846024     -1.1586300665     -3.5066627408
C     1.7424256003     0.2195927045     -3.6230257667
C     0.3491727695     0.6008005873     -3.6530164355
C     2.6995755486     1.1520545125     -3.1934160093
C     -2.2889412936     3.9805159437     0.6872955985
C     -4.0988139758     2.370211144     0.589150076
C     -3.3054722083     3.3994543494     -0.0177166162
C     -0.8219023797     3.9874440504     -1.3160290381
C     0.5706121745     3.8407575864     -1.6999520232
C     -1.1123118713     4.4233522232     0.0077649624
C     -1.9226799082     3.4699491883     1.9875713601
C     -2.5112232767     2.2960664948     2.4928797807
C     -3.6919146108     1.7565466256     1.8004727704
C     -4.0680215772     0.3593860137     1.9972831494
C     -4.7474802265     -0.3506199554     0.94729509
C     -3.2954700621     -0.4079748123     2.8935781855
C     -0.5443924301     3.782984961     2.1957913284
C     0.3275041153     2.9194346563     2.8816905976
C     -0.2310585966     1.6903723891     3.4282187311
C     -1.6448125322     1.4317113158     3.2786398876
C     -2.0998105177     0.1093468603     3.507379398
C     2.0481838133     0.7391310839     3.4947970963
C     0.6665745824     0.5676276554     3.689555886
C     1.2200319673     4.4603408845     0.6207555862
C     -0.0873395401     4.4892976309     1.0071942074
C     2.1977840121     3.8096804126     1.4605540111
C     1.7544136914     3.0226994409     2.5665133071
C     2.5973363713     1.9586264883     2.9169254306
C     1.5623335775     4.2514850491     -0.7604349921
C     -3.12757119     -1.8272721288     2.7221634764
C     -3.6541417974     -2.4781188076     1.5727734833
C     -4.4559435344     -1.7190763697     0.6863494614
C     -2.8929477367     -3.5372665679     1.0207004183
C     -1.8415053477     -2.1817697689     3.2300305337
C     -1.0743170215     -3.2249207796     2.6852391584
C     -1.6897492968     -3.9705685374     1.6211568473
C     0.4733534792     -4.5381845545     0.7054950046
C     -0.8752089256     -4.5265824666     0.5698196072
C     0.1882065612     -0.8048573302     3.7046011863
C     -1.2072467145     -0.9766313086     3.7111698358
C     2.9010545457     -0.3406173943     3.1660699554
C     2.4088530363     -1.6603818181     2.9570564614
C     1.0295252888     -1.9195818349     3.2822795828
C     0.3840530793     -3.1211430942     2.7509646935
C     1.1245727806     -3.9129327712     1.850153157
C     3.9733782818     0.2050757337     2.3602806771
C     4.5653219023     -0.5397902817     1.3688719203
C     4.1608049641     -1.9029290158     1.1776799618
C     3.1220077187     -2.482408524     1.9849562842
C     2.4336488906     -3.5657198333     1.422125224
C     3.2798780356     3.3979320596     0.630839542
C     4.0591880097     2.2555923175     0.9318172965
C     3.7614930798     1.6239017285     2.1747511055
C     4.1790828613     1.756587793     -1.5004080387
C     3.2681869004     2.8530957014     -1.7557175545
C     2.8796261147     3.6921754727     -0.7459055808
C     4.8741818392     0.0623190788     0.080158933
C     4.5800330517     1.4318567802     -0.1735105958
C     3.2405927716     -1.5778766338     -2.7913030467
C     4.666325502     -0.9505472624     -0.8959158862
C     4.1084868397     -0.6353931382     -2.169263032
C     3.8747043375     0.7373208892     -2.4483985354
C     2.5626212647     -3.8877688539     0.0010630086
C     4.2664192069     -2.1766154476     -0.2128285691
C     3.4112752206     -3.1213518609     -0.844253586
C     2.9285707302     -2.8438948944     -2.1519969644


