94

 C     3.2656826376     1.4636617499     2.6417776314
C     4.1381463619     1.1599055215     1.5646734365
C     4.5067293866     -0.2089565852     1.4467244507
C     2.6351134899     0.4495424645     3.4119642845
C     2.8793484563     -0.9215130929     3.1899600214
C     3.9036212606     -1.2254009202     2.256522276
C     4.107251454     2.0167038297     0.3734790596
C     4.4795093401     1.4151674431     -0.8555976444
C     2.3835629086     2.6059514581     2.596025319
C     2.353293789     3.4719634997     1.4867185586
C     3.2061777191     3.1691948958     0.3286130245
C     1.1337959727     4.1856487812     1.3078409085
C     1.1957384855     2.2805992863     3.3258553187
C     -1.2625048378     2.0204916292     3.1910553395
C     -0.067166073     2.8260252443     3.0044361538
C     -0.0441941265     3.8787072667     2.0534928085
C     -3.5539592168     1.5165745429     2.402116006
C     -2.48496959     2.4249083641     2.4844987114
C     0.2148407568     0.0990680483     3.9205744985
C     1.3225221327     0.9348914691     3.7923369752
C     -1.9690163887     -1.6471316829     3.4344028939
C     -2.2232108274     -0.2546684528     3.4954789437
C     -1.1210196365     0.6679441225     3.6767459229
C     -3.4125153621     0.1728477823     2.8711864669
C     0.4633890268     -1.3512716293     3.8280923617
C     1.8443316705     -3.0962736534     2.7413372181
C     1.785441808     -1.8593131888     3.422487865
C     -0.6442284367     -2.1809759638     3.6292260233
C     0.6848971868     4.5539874043     -0.0144132878
C     1.4258851273     4.1936334593     -1.103528349
C     2.7322865312     3.5978676844     -0.9399710591
C     2.9633117608     2.8313049909     -2.1221771023
C     3.8412414241     1.7810342527     -2.087223679
C     -0.7450157951     4.4651367837     -0.0818781119
C     -1.3916180214     3.9284292601     -1.2339991629
C     -2.6879319967     3.460316103     -1.0277597594
C     -3.2495977467     3.3323107082     0.288292654
C     -2.4116020753     3.4445214549     1.4342658083
C     -1.2006749722     4.1259253207     1.2215097371
C     -4.2870868193     2.35211099     0.2145608857
C     -4.4782640511     1.4924104899     1.2806297531
C     1.8851732368     -0.8345534426     -3.7835870041
C     3.557912013     0.5981050184     -2.8628743232
C     2.3265816366     0.4777913193     -3.5646873318
C     -0.6024026225     3.3377352703     -2.3087875644
C     0.781747604     3.6022757782     -2.2755259325
C     1.7179539049     2.7403597198     -2.8818113394
C     -3.2610563928     2.4448493193     -1.8814210602
C     -2.4564527147     1.7067513587     -2.7824310843
C     -1.071177855     2.1505321041     -3.0103507602
C     -0.1070501384     1.2423606735     -3.5884712398
C     1.3193872665     1.5413642714     -3.5096443816
C     -0.5134226556     -0.136613507     -3.8920582074
C     0.4954448599     -1.1128366311     -4.0273044289
C     2.4695166556     -1.9532460205     -3.1108044947
C     3.5250655666     -1.7971828992     -2.1947934635
C     4.1374167627     -0.5112139589     -2.1755219239
C     4.7482200112     -0.0006925044     -0.9668909089
C     4.776707607     -0.7957518378     0.1499870292
C     2.4076751859     -3.5572233555     -0.7609521152
C     3.5279698659     -2.6352382955     -1.0001281789
C     4.2436579299     -2.1420078138     0.1170269543
C     2.1203869325     -3.9294631797     0.5636438885
C     2.7995392519     -3.3209365357     1.6741152519
C     3.8161669642     -2.4257254897     1.4515220314
C     1.3095735602     -3.6699125562     -1.7185221492
C     1.4321502708     -2.9435158454     -2.919939377
C     -2.8539577822     0.3324402868     -3.0654935955
C     -1.8687829164     -0.5982913314     -3.596142509
C     0.2827705123     -2.4772379451     -3.6237200874
C     -0.9702213973     -2.8884106472     -3.2482785502
C     -2.0700905327     -1.9835877605     -3.3638681591
C     -1.1389541125     -3.7091709414     -2.0855074939
C     -0.0452187142     -4.0359130626     -1.2683689936
C     -4.685472977     0.5290623136     -1.3763944699
C     -4.3404760824     1.845210322     -1.1443189928
C     -4.0125658896     -1.5866884534     -1.9701455159
C     -3.9869263673     -0.2042069394     -2.3889752464
C     -3.0596352538     -2.4497179037     -2.4303715459
C     -4.8398631156     0.1138540959     1.0370310436
C     -4.4664017661     -1.6726751012     -0.6074738761
C     -4.9672095969     -0.36194692     -0.2601351411
C     -2.6559450893     -2.4816459101     2.5104704698
C     -2.4588313123     -3.4171475809     -1.5511945112
C     -2.7322144834     -3.404378481     -0.1765736798
C     -3.7815253989     -2.4931771202     0.32047744
C     -3.6937001882     -1.9945658351     1.6881254717
C     -4.1759178152     -0.7024602801     2.0134135231
C     -0.3367083063     -4.2244234818     0.1467089257
C     0.7705285532     -4.2437556106     1.0083044138
C     0.6593657511     -3.7988789597     2.3680815984
C     -1.6613376199     -3.8747677013     0.6990292312
C     -1.7327436169     -3.5034656956     2.0556687544
C     -0.5607919031     -3.3911854482     2.85822045


