94

 C     3.8000252972     -2.0195420224     1.5796830443
C     2.7359632779     -2.4546430107     2.3890848318
C     2.3637872894     -1.5795827197     3.4457960427
C     1.0595425955     -1.6447689148     4.0060704785
C     0.1935799852     -2.639259641     3.6148130079
C     3.9087386139     -2.438747826     0.2274990938
C     2.8722562878     -3.1868543182     -0.4105716667
C     1.7576760558     -3.6634378251     0.388657912
C     1.7472736661     -3.3650843044     1.8121772592
C     0.5302355711     -3.5086595125     2.5057633665
C     0.4005249719     -3.8856634547     -1.659442321
C     0.4930326172     -4.0178894556     -0.2612971227
C     1.4713050963     -3.3227406509     -2.4253243512
C     2.6974009442     -2.9644629476     -1.8360985105
C     3.4021299152     -1.9110394102     -2.4884893446
C     -0.7799933265     0.0190746837     4.0099565977
C     -1.7343970245     -1.0800534035     3.7619582803
C     0.5649214674     -0.3034549281     4.2021362627
C     -1.2126740729     -2.3783480117     3.5868865768
C     -1.7741484782     -3.2799508856     2.5989985554
C     -2.9476218389     -2.9629936727     1.96945177
C     -3.640959264     -1.7526014317     2.3036344962
C     -3.0230995311     -0.7875390001     3.1421558654
C     -3.3491808936     0.570724267     2.9047993898
C     -0.770416129     -4.0427781469     0.4615884932
C     -0.6986119678     -3.8758829617     1.8593035969
C     -3.1077698385     -3.2312765639     0.5648330928
C     -2.0378029348     -3.7188676056     -0.2111018005
C     1.6305689792     0.5939656401     3.8309899126
C     -2.3865600797     1.6306263431     3.1248964395
C     -1.0746798127     1.3819687732     3.5694907825
C     -0.0066976303     2.3025910177     3.1785370483
C     1.3771463406     1.8694575969     3.2793473019
C     -0.3347180029     3.4111303488     2.2960803576
C     0.7201697252     4.0094035223     1.5733055172
C     -2.6984515186     2.701278147     2.2250554896
C     -1.6852241785     3.5705321241     1.7573482438
C     -1.870195551     4.106324651     0.4510526138
C     -0.734667177     4.4354515294     -0.3524938562
C     0.5124837982     4.4672950141     0.2144471488
C     -3.7907338117     2.2878518097     1.405487375
C     -4.3625041602     1.7278812594     -0.9053021911
C     -3.8542673354     2.6653561718     0.0381829484
C     -2.8713633182     3.5775139084     -0.429142468
C     -4.3753258177     -1.3591501123     1.1318417776
C     -4.6697327872     0.0080767649     0.877209115
C     -4.1891320511     0.9615618344     1.8266553896
C     -4.790020513     0.400875245     -0.4839368309
C     2.0702171501     3.542634095     1.6539033663
C     2.4342111556     2.4508606269     2.4563004707
C     3.6117265818     1.6600126202     2.0561860078
C     2.6723773151     3.7407277718     0.3543859474
C     3.7072878385     2.9599020324     -0.0554883158
C     4.2728159515     1.9824611178     0.8431892182
C     1.6424699819     4.1107892083     -0.5758100374
C     3.7296236805     0.2886548136     2.5185073237
C     2.7526065682     -0.1933504085     3.4232929431
C     4.8900006068     0.9777418752     0.0208735842
C     4.9429940801     -0.3432828333     0.4508070881
C     4.3701467452     -0.6881587268     1.7117870476
C     4.5437518601     1.2709249804     -1.3650212884
C     4.6745274421     -1.426053761     -0.4766715853
C     4.3869984612     -1.1376658554     -1.7965859073
C     4.2863529012     0.2416869905     -2.2477513138
C     3.7218732435     2.4420082189     -1.4033792796
C     2.5624325736     2.5301650468     -2.226801079
C     1.4953348008     3.4298096911     -1.8189137068
C     -0.912304587     3.8937071452     -1.6703201262
C     0.1511926462     3.2586675264     -2.353660177
C     -1.575171812     1.7445976203     -3.3783656443
C     -0.1705429264     2.1222630167     -3.2217602316
C     0.8746949659     1.1868759587     -3.5721075254
C     2.2528465196     1.4137085425     -3.1135345915
C     3.1679206698     0.3311830412     -3.1427963033
C     -1.8654986008     0.4654245774     -3.8961582171
C     -0.8441151944     -0.4614005987     -4.1978440116
C     0.5151846134     -0.1466757383     -4.0372556035
C     -3.954324804     0.2630918118     -2.6176014825
C     -3.8023399487     1.6312961784     -2.2092890139
C     -2.6340702669     2.3748906584     -2.5808241177
C     -2.2722075606     3.4238619611     -1.7290165024
C     -3.034819368     -0.2967101924     -3.4583266002
C     -4.0530720384     -2.2689785834     0.0599950942
C     -4.0264583258     -1.8395540487     -1.2847540882
C     -4.509519901     -0.5159920838     -1.5375616036
C     -0.5148561711     -2.7897211825     -3.4741637352
C     -0.8507431513     -3.5801566075     -2.3244362631
C     -2.0547977546     -3.3837871003     -1.6292752473
C     -1.3625333106     -1.7966944155     -3.8960045093
C     -2.6592930394     -1.6786779931     -3.3188707921
C     -3.0350507774     -2.4334063861     -2.1703157999
C     2.7155503556     -1.0223089725     -3.3760414295
C     1.4172686546     -1.2774479919     -3.8262544776
C     0.894578725     -2.5524615617     -3.4865724958


