94

 C     1.808801275     -4.0063438565     -0.1075663923
C     3.0271187507     -3.3443130401     -0.3676257713
C     -0.8879860374     -4.4448277577     0.6955817551
C     0.0747367183     -4.2623886071     1.652661152
C     1.4481449471     -4.1202675962     1.2639342888
C     -2.1967755485     -3.9342920388     0.9066871681
C     -0.1847502215     -3.392542439     2.7646859595
C     -1.391825792     -2.6951227996     2.8888194806
C     -2.48790394     -3.0430821943     1.9782968997
C     -3.5941197572     -0.9273246506     2.5513492214
C     -3.5864398396     -2.112789873     1.7806499951
C     -4.2685452289     -2.063910832     0.5266736117
C     2.1023956819     -3.3299840905     2.2678705819
C     3.2705973236     -2.5845892835     1.9649515541
C     3.7836558949     -2.6927738818     0.6391953102
C     3.4571216218     -1.3681431049     2.6593781643
C     1.0801604024     -2.8037590499     3.1317193871
C     -2.4671166935     -0.5702515058     3.3947015466
C     -1.3281335495     -1.3614548395     3.5107797367
C     -0.0394178511     -0.7071540798     3.7955606392
C     1.167980893     -1.487458257     3.6416901918
C     2.4161683758     -0.83187229     3.4686230733
C     4.1737362415     -0.2606416217     2.0498923448
C     4.6926039255     -0.3592744992     0.7218908772
C     4.4777388165     -1.5846145955     0.0164852453
C     4.7462939035     0.8418865421     -0.0379745641
C     3.6101162341     0.9497799555     2.5323889068
C     3.5994158281     2.1312226219     1.7555750583
C     4.2766223999     2.0758207653     0.4992150031
C     2.7690507232     3.7390236567     -0.4351465086
C     3.7846978677     2.846746293     -0.6169188705
C     0.2015873151     3.4161108269     2.7462420525
C     1.4091424693     2.7193276281     2.8692692159
C     2.5016507711     3.0625388815     1.9526737901
C     2.2063282184     3.9481615549     0.8775883474
C     -2.3965328328     0.8591567988     3.47362894
C     -1.1476882131     1.5156230159     3.6384095395
C     0.0603105345     0.7361173171     3.7916160565
C     1.3478975477     1.3889140205     3.4984002914
C     2.4864288392     0.5971066383     3.3819914382
C     -1.0618767734     2.8292600906     3.1212731483
C     4.4868596711     0.8303718082     -1.4727046686
C     4.1504050218     -0.3829554336     -2.1280123334
C     4.1955349142     -1.5980000565     -1.3838064016
C     3.2166638615     -0.3093718699     -3.1851065912
C     2.5510660534     0.9156175392     -3.5018870778
C     2.760949627     2.0989619551     -2.764750473
C     3.8322274808     2.0495591757     -1.8164153843
C     2.2717943971     -1.3786873455     -3.4154001636
C     2.1966357887     -2.5211585288     -2.5647983756
C     3.2366685523     -2.642925619     -1.619604764
C     0.8932859667     -3.1677895942     -2.3268862123
C     0.75503932     -3.9875796809     -1.1346669356
C     -0.5451807895     -4.3282920417     -0.7229955113
C     1.102621621     -0.8356967362     -3.9868926626
C     -1.2623521739     -0.6124436717     -4.0101600523
C     -0.1582272672     -1.4568679902     -3.8208338501
C     -0.2867083454     -2.6579281309     -2.9892477804
C     -1.6189410688     -2.9919142846     -2.5043893414
C     -1.7020304971     -3.8622771441     -1.3964182216
C     1.7026051424     3.8642144743     -1.4231625239
C     1.6151909887     2.9880897517     -2.5262530426
C     0.2810723585     2.6516085914     -3.0041612136
C     0.1493475162     1.4462377447     -3.8289898456
C     1.2527363054     0.600829264     -4.0182266786
C     -1.1121292678     0.8242294706     -3.9869069379
C     -2.5586576551     -0.9245365573     -3.4871434745
C     -2.7656345688     -2.1040226708     -2.7430338163
C     -3.8331885367     -2.0496919964     -1.7907800725
C     -3.7809768667     -2.8406276525     -0.5873536213
C     -2.7646006985     -3.7319370487     -0.4049175022
C     -3.2230379674     0.302095215     -3.1741486572
C     -4.1948348965     1.6000607186     -1.3757234556
C     -4.1526202786     0.381175389     -2.1137778407
C     -4.4864871686     -0.8287176696     -1.4508565621
C     0.5483810853     4.3337059161     -0.7476493833
C     -0.7534360899     3.9908745236     -1.1524594729
C     -0.8963274855     3.1648993282     -2.3398532426
C     -3.2369027673     2.6437309677     -1.6206955737
C     -2.2006006773     2.5170486603     -2.5693098698
C     -2.2790805253     1.3701824121     -3.4136780544
C     -1.4371629128     4.1360442991     1.2481211541
C     -0.0622515821     4.2801711745     1.6307334685
C     0.8967088056     4.4575904372     0.6689444868
C     -3.0224822854     3.3516212251     -0.3732017611
C     -1.803173513     4.0149869139     -0.1213512374
C     -3.4406508065     1.3912261385     2.6656866102
C     -3.7750783117     2.7053327097     0.6399307377
C     -3.2568538478     2.6040488177     1.9642265084
C     -2.0874871081     3.3509951536     2.2586996514
C     -4.7403211516     -0.8327802862     -0.0150910064
C     -4.4715822762     1.5939633019     0.0257159013
C     -4.6836804391     0.3723120592     0.7383155866
C     -4.1596358928     0.2805770504     2.064779676


