94

 C     -4.4398305193     -1.4747852101     1.0317836969
C     -3.9026509495     -2.6255636336     0.4015643356
C     -3.7870862546     -2.557945049     -1.0172155623
C     -2.7667069857     -3.306575458     -1.7093529674
C     -1.9581439906     -4.191839764     -1.0400653614
C     -3.9341106498     -1.0359398926     2.3210109777
C     -2.9476882039     -1.7471199738     2.960991079
C     -2.481030712     -2.9994593633     2.4091586708
C     -2.9424422778     -3.4554892508     1.1449752296
C     -2.0238391243     -4.2643722708     0.4214876894
C     -3.9074502236     0.3977666606     2.3654170888
C     -2.7926663919     1.1145500525     2.8810783755
C     -2.5347671958     2.4481640031     2.3647686127
C     -0.8412332241     -2.5440009236     -3.0953814019
C     -0.0126540503     -3.5776472442     -2.4684885822
C     -2.2051811589     -2.4865452477     -2.7528170309
C     -0.6073366238     -4.3775537239     -1.4642037704
C     0.1364745892     -4.7225087979     -0.2661976034
C     1.4722994229     -4.4795363098     -0.1818506373
C     2.1791783369     -3.9438131799     -1.3163831817
C     1.4401690751     -3.4162271834     -2.4271759087
C     2.0008345387     -2.3083225672     -3.0946313233
C     -1.118924632     -3.1540582716     2.809114282
C     -0.1844918951     -3.8879039585     2.0534438012
C     -0.7119089323     -4.533999586     0.891909882
C     -2.9402322676     -1.2597510202     -2.7656063535
C     1.1716916189     -1.2616238408     -3.6434963335
C     -0.2409311675     -1.3131657499     -3.5827031201
C     -0.9625004869     -0.062689922     -3.5724751687
C     -2.3525586597     -0.0440400751     -3.139961183
C     -0.2048397875     1.18011903     -3.5480428767
C     -0.8871137704     2.3676865066     -3.2467610695
C     1.8937409056     -0.041766741     -3.5473501677
C     1.2389541825     1.196094056     -3.3957323225
C     3.210296066     1.9786207905     -2.0451142491
C     1.9211213127     2.2614217324     -2.6848766787
C     1.1391178395     3.3915679815     -2.2408496564
C     -0.2217842076     3.4719595916     -2.639656144
C     3.5876477458     2.762900502     -0.9307925123
C     3.1751884767     -0.3103245443     -2.9569676618
C     4.6581019371     0.1537660793     -1.1037111084
C     3.8239923244     0.6527676762     -2.163177111
C     3.3132771145     -3.264923948     -0.8016271917
C     3.8860155175     -2.1659075512     -1.4844509765
C     3.2325798988     -1.7117037459     -2.6627119621
C     4.5909820879     -1.2090711671     -0.7092199335
C     -2.2831112374     2.3793967273     -2.8512211362
C     -2.9914913955     1.1837689276     -2.6676654352
C     -4.0144175596     1.1340600232     -1.6190956002
C     -2.4844354878     3.5285236763     -2.0194156766
C     -3.3694084677     3.4403280822     -0.9522208356
C     -4.1548419806     2.2634942412     -0.7783087947
C     -1.2071055377     4.1910407241     -1.858982076
C     -2.9407293128     3.894459532     0.3672011946
C     -1.7152967256     4.4897305192     0.5262631545
C     -0.8620701304     4.7273879141     -0.6263224609
C     0.4931905996     4.641377855     -0.1889068549
C     2.6874779818     3.7138714289     -0.3611184387
C     1.5068533724     4.0948401072     -1.0214259363
C     -4.424623023     -0.1607175289     -1.0827203833
C     -3.9463293987     -1.3261617851     -1.717653613
C     -4.3091850541     2.0702110284     0.6583609133
C     -4.5763956225     0.836135118     1.1737303681
C     -4.7639426532     -0.2956364519     0.2929255221
C     -3.3963493376     2.9459701888     1.342409099
C     3.7822550086     2.6882040578     1.408394137
C     2.7493167287     3.6129746152     1.0780375678
C     1.5562485892     3.6929146392     1.8416761798
C     0.4813766346     4.3404674972     1.2174927602
C     3.601484336     1.8226213057     2.4753037852
C     4.7804214034     0.0443288589     1.2446529497
C     4.8680371045     0.9337202315     0.0931901095
C     4.3656862078     2.2045940783     0.1650614202
C     4.1029798441     0.4687353946     2.3959772508
C     3.2246562325     -3.2604320128     0.6610487073
C     3.7233145755     -2.1770356054     1.4250278808
C     4.5890383591     -1.2705044965     0.7574760634
C     -0.7203134321     -1.9524170314     3.4949429099
C     0.5876052631     -1.4824126279     3.4589006614
C     1.6180215493     -2.3073291789     2.8234383366
C     1.2159532023     -3.493050592     2.1052399522
C     2.0581532919     -3.9414818732     1.0388918203
C     3.1424645627     -0.3940331691     3.0089937214
C     2.9117220309     -1.7103930584     2.5462548027
C     -0.86994813     4.1081833599     1.632535641
C     -1.2009419062     3.0235272206     2.4888196019
C     1.2657076912     2.6736653905     2.8428481041
C     -0.1070409861     2.2431189249     3.0717397023
C     -0.3559515841     0.889931077     3.5130534102
C     -1.7011296349     0.349078289     3.4653756282
C     -1.846204511     -1.0554002645     3.5624697904
C     2.3200685519     1.7919171883     3.1574742522
C     2.058956989     0.4383509971     3.5000511136
C     0.7585243501     -0.04556304     3.6332721204


