94

 C     -3.9757402939     -1.5487342044     1.9816319659
C     -4.0449655347     -2.2720972829     0.7656875869
C     -3.1552854461     -3.3712366671     0.6642189115
C     -2.6305521078     -3.7910688421     -0.6230998308
C     -2.9213653448     -3.07069189     -1.7533752813
C     -0.9560494703     1.2045713597     3.9765291943
C     -1.2703280057     -0.1740775739     3.9146469339
C     -2.5859548221     -0.476086945     3.5123983641
C     -2.8957156003     -1.7419315942     2.9000440593
C     -1.8812176215     -2.7010843567     2.6911123598
C     -2.1180774018     -3.5969945548     1.615846065
C     -1.1714289546     -0.6321172319     -3.7210609394
C     -2.1760040337     -1.4950303348     -3.2675957525
C     -1.8756229739     -2.7676434741     -2.7171496027
C     -1.3056405226     -4.3171080862     -0.4503364825
C     1.0248752405     -4.2339307606     -0.9467898074
C     -0.2872816217     -4.1034822107     -1.4214965929
C     -0.5489821686     -3.2118697952     -2.5569983594
C     2.1309062375     -3.5811728795     -1.6160885246
C     1.8910262909     -2.6802951765     -2.6865280521
C     0.5144233867     -2.4064762107     -3.1209589319
C     0.2006779404     -1.1240809001     -3.715789395
C     1.2716389604     -0.1488113583     -3.896479411
C     0.952735007     1.2290863006     -3.9509614445
C     1.3209121022     -4.3151103574     0.4461872997
C     -1.0098658301     -4.2424266271     0.943058783
C     -0.1960939088     -1.1447601002     3.7287410593
C     -0.5055389205     -2.4249925069     3.1270291368
C     0.3018512959     -4.1101292356     1.4184722558
C     0.5605620105     -3.2237622243     2.5587555255
C     -0.411354651     1.6912236368     -3.8943507283
C     -1.4820649956     0.8065601896     -3.7351570124
C     -2.7039942181     1.3125781053     -3.0880009915
C     -0.39431863     2.9859174912     -3.2712243906
C     -1.4936898292     3.4090880073     -2.5552590134
C     -2.682856858     2.6186641749     -2.5511656187
C     0.9205585978     3.2466996906     -2.7906318437
C     -1.3151968066     4.0224620812     -1.2721641148
C     -0.0382161858     4.1648255586     -0.7072939229
C     1.1403800994     3.7994823799     -1.5131921023
C     4.2996642589     1.8999822126     -0.6402262796
C     3.370635219     2.5586112855     -1.4799383894
C     2.417364622     3.4997463044     -0.8696667943
C     2.4807190986     3.7102668119     0.5169478951
C     1.7810331466     2.2065766522     -3.3223023366
C     3.4619927405     0.5464056905     -2.9524801213
C     2.9991226444     1.8669876801     -2.7078977043
C     2.9022903707     -1.716636276     -2.8903026348
C     2.5882767439     -0.4485641436     -3.495847709
C     -3.6593103178     0.3721652677     -2.5104596277
C     -3.4099334632     -1.0072759584     -2.6557462657
C     -3.3708243894     2.9315360543     -1.3140601271
C     -4.2402163458     2.0321941515     -0.7516871917
C     -4.4474454419     0.7459266836     -1.3852320644
C     -2.4923892307     3.7045966961     -0.4779957207
C     -4.3052407067     1.8820225185     0.6694155372
C     -3.3784183431     2.5392408852     1.5126626536
C     -2.4283172015     3.4868377592     0.9074653506
C     1.3024715588     4.0199011766     1.3128012597
C     0.0250150655     4.1610148452     0.7486933659
C     -1.1523391222     3.7873889844     1.5526044548
C     -0.9306538148     3.2284893937     2.8270570859
C     -4.7351986851     0.5179064964     0.9089304193
C     -4.7939960493     -0.1899419694     -0.3629076837
C     -4.4353327331     -1.5576859057     -0.4571462334
C     -3.8409195798     -1.9574511053     -1.6926682593
C     -4.3308795543     -0.1478352696     2.0419563504
C     -3.4630100742     0.5188530343     2.974370739
C     -1.7876273469     2.1826388034     3.3531224135
C     -3.0045771178     1.842276641     2.7368911008
C     2.6748474259     2.6138484584     2.5842534281
C     1.4830337626     3.4002407453     2.5925830125
C     0.3850939084     2.9695390876     3.3062546021
C     2.7003743121     1.3049751297     3.1140630973
C     1.4801567713     0.7913854582     3.7584809309
C     0.406482506     1.6715795035     3.9224150777
C     4.445702741     0.7533413048     1.4082886839
C     4.2341517408     2.0422919296     0.7816608065
C     3.3617500918     2.9356747091     1.348852058
C     3.4140966348     -1.0101373197     2.6693585341
C     3.6588397118     0.370894128     2.5314831057
C     4.3321004463     -0.1223702491     -2.0236524044
C     3.8482641876     -1.9536667101     1.7011956834
C     4.4413218079     -1.545275629     0.4678405396
C     4.7953865135     -0.1758495209     0.3809511472
C     4.7341985707     0.5386236998     -0.8870622786
C     2.9324532809     -3.0702991502     1.7559150256
C     2.6440515844     -3.7855600653     0.621781767
C     3.167358375     -3.357057628     -0.6632608821
C     4.0533422095     -2.2544056625     -0.7588178134
C     3.9816755625     -1.5247559223     -1.9708580217
C     1.1743498249     -0.6482309039     3.7366569769
C     2.1818184969     -1.5053155176     3.2785728147
C     1.8857091704     -2.7759508701     2.7212992717


