94

 C     2.9714260979     -0.941106176     2.9889974924
C     3.2872056209     0.4139378186     2.8065370547
C     4.3717991416     0.6835189398     1.9171209706
C     4.4707023546     1.9580991253     1.2439729167
C     3.5302682611     2.9286050268     1.5095925395
C     1.6362230511     -1.3543477076     3.368005661
C     0.5737854083     -0.4436866421     3.4848831282
C     0.8684689325     0.984562141     3.3227959822
C     2.2295091706     1.3994008758     3.0183054256
C     2.4332882009     2.6720581288     2.4317932819
C     -1.5964374913     1.4066519767     3.1780427191
C     -0.2247882766     1.8808800999     3.0692959976
C     0.0181641318     3.1102378511     2.3450853809
C     1.3316795897     3.4557581122     2.0199678265
C     -2.6295992514     2.2491025267     2.7040641199
C     -1.8731445213     -0.0174503516     3.3229076419
C     -0.7708166996     -0.9670498637     3.3421153978
C     -3.1623591225     -0.48378769     2.9942613595
C     4.3547786745     2.4379002709     -1.1628346178
C     3.3718564551     3.4588867577     -0.8852866019
C     4.9382562633     1.7292868085     -0.1112831778
C     3.01576144     3.7529922921     0.4345892424
C     1.6661285764     4.085771375     0.7439181668
C     2.3301023893     3.36102692     -1.8711429409
C     1.0116737709     3.7114593546     -1.5875373125
C     0.6807193847     4.17090197     -0.2453530263
C     -2.3414523394     3.3739764151     1.8316158048
C     -1.0237818539     3.7244955807     1.5446023497
C     -0.6938108351     4.1715663837     0.1980079429
C     -1.6790234011     4.0746713508     -0.7903784822
C     4.8628416078     -0.3498391864     -1.4117931543
C     4.1661874737     0.3650137694     -2.4634736798
C     5.1884704062     0.3093619384     -0.2342821484
C     3.9063613062     1.7188953054     -2.3403441221
C     2.6207004425     2.2283446657     -2.7326058936
C     -1.6372818958     -1.3906512076     -3.3614236601
C     0.7689154982     -0.9978935971     -3.3393400604
C     1.5893769047     1.3790785051     -3.1983539786
C     1.8691795488     -0.0457612561     -3.329371658
C     3.1594021582     -0.5060740035     -2.9962187229
C     -0.5768175833     -0.4788661739     -3.4871651513
C     -2.2365448356     1.3650742377     -3.0385153118
C     -1.3431913247     3.4329898547     -2.0602382623
C     -0.0289265018     3.0871761295     -2.3819905619
C     0.2167022363     1.8513609949     -3.0942086882
C     -0.8746048776     0.950247138     -3.3389660875
C     -2.4430906647     2.6429320832     -2.464409764
C     3.2522077524     -3.4609650088     -0.1623351572
C     4.1936725657     -2.3984684128     -0.1505000616
C     4.3435495431     -1.6960601277     -1.3722476473
C     3.3400304772     -1.8022478651     -2.3941875415
C     0.9791658534     -2.3507677339     -2.8718095498
C     2.2751375067     -2.7137985384     -2.310312545
C     2.3537149054     -3.6551574362     -1.2501548058
C     -1.4318070759     -2.7168923031     -2.881367462
C     -0.1574940932     -3.1835074635     -2.5379993746
C     4.4089448466     -1.6638025947     1.1014132705
C     4.8793821614     -0.3281335789     1.0387310204
C     2.5242322889     -3.8393380379     1.0336925106
C     2.6305741831     -3.0648675089     2.1659231584
C     3.5693141864     -1.9731642524     2.2097258119
C     1.2342731214     -4.3567726145     0.6652186623
C     0.0778530264     -4.1193809977     1.4574766186
C     -1.145496324     -4.2811572628     0.7917446329
C     -0.0729313529     -4.1335687591     -1.4241069141
C     1.1507596442     -4.2862019063     -0.7568453965
C     -1.22884178     -4.3657460905     -0.6295613169
C     0.160341841     -3.1583444485     2.5620703601
C     1.4336315515     -2.6856432213     2.9008725995
C     -2.3498219052     -3.6479556574     1.2789070817
C     -2.2732978217     -2.6961561649     2.3298513228
C     -0.9781244461     -2.3248569912     2.8877703246
C     -3.3401667337     -1.786147344     2.4048688537
C     -3.2487263718     -3.4663143677     0.1892619817
C     -4.1924962983     -2.4060304575     0.16710244
C     -4.3439054228     -1.6920916217     1.3819600431
C     -3.5690411066     -2.0023610466     -2.1971576419
C     -2.6279328549     -3.0915448271     -2.1427489004
C     -2.519921077     -3.8547264522     -1.0030365361
C     -4.882686131     -0.348859603     -1.0422054929
C     -4.4093501262     -1.6840524299     -1.0918970364
C     -3.5406365139     2.9060606369     -1.544740999
C     -4.4789669758     1.9361484784     -1.2696835895
C     -4.3772889751     0.6552947488     -1.9303993019
C     -3.2921038808     0.3794269367     -2.8171642047
C     -2.9733832009     -0.9766383708     -2.9864395702
C     -4.3641109288     2.4396010102     1.1323405349
C     -3.3834047348     3.4599717519     0.8448628422
C     -3.0279325426     3.7419885454     -0.4778167582
C     -4.9460353245     1.7195217258     0.0877403071
C     -4.8661199778     -0.3466814161     1.408414368
C     -4.1710306751     0.3798844392     2.4530826185
C     -3.9141455483     1.733064609     2.3167859246
C     -5.1931682771     0.3003211627     0.2245491771


