94

 C     2.1295627096     3.9973378769     1.1345111989
C     0.7816311226     3.8740050621     1.5600566327
C     -0.2712016105     4.25489273     0.6305275285
C     -1.6489700477     3.8733015955     0.9052796363
C     -2.5844381462     3.9367711657     -0.1590123555
C     -3.80422744     3.1847027274     -0.1532854525
C     -1.9367889914     2.9519628745     2.0056193986
C     -3.2018808687     2.3359467795     2.0489622052
C     -4.1685851855     2.4798981575     0.9799206044
C     3.1975667462     3.2387820142     1.7199701951
C     0.4812269963     2.8908904377     2.6012776286
C     -0.8464110735     2.308926168     2.7154620661
C     2.9172209636     2.372348972     2.7657032
C     1.5518582305     2.1862696589     3.1737957548
C     -4.4953932853     -0.9738298088     1.814215332
C     -4.9062472129     1.2462287574     0.8600828995
C     -4.4919388444     0.3966346775     1.9545933055
C     -3.3420549663     -2.9700079277     1.6700545228
C     -3.4786598647     -1.7656523807     2.4498387382
C     -2.1972161957     -3.7156967751     1.7642094806
C     1.4019985128     0.8027601074     3.5540580272
C     0.1684458898     0.1481430507     3.4883531616
C     -1.0082473393     0.9596091716     3.2135740087
C     -2.2823432794     0.2880266486     3.1044673737
C     -3.381540106     1.0325893761     2.6270990554
C     0.178528948     -1.2909891538     3.3186187049
C     -1.1083275045     -1.9543069047     3.1203320743
C     -2.3405881531     -1.1701994335     3.0590160789
C     -1.1121722866     -3.2563029501     2.5906903049
C     -4.7702805596     -1.5697527161     0.5139339589
C     -4.9588544164     -0.7482225592     -0.5786504321
C     -5.1080347772     0.6766630144     -0.4037948796
C     -4.516351635     1.3065964036     -1.5611437276
C     -3.960190703     2.5621957875     -1.4594670088
C     -3.968043366     -2.7559860701     0.3902177473
C     -4.1572892649     -0.9784973713     -1.7691467322
C     -3.2699066062     -2.0643477491     -1.8732982318
C     -3.2482545635     -3.0618823176     -0.793448566
C     -2.1122451863     -3.9613931787     -0.6720597528
C     -1.1430353437     -3.9499695298     -1.7149584954
C     -1.6524939388     -4.3534904117     0.610757785
C     -0.7819202051     4.1437731374     -1.7806817755
C     -2.1010504352     3.9081228229     -1.5210685234
C     -2.7978083479     2.8871441625     -2.2400217697
C     -3.8454657781     0.2917830448     -2.3479012702
C     -1.1434752611     -2.9270433377     -2.6917811913
C     -2.1038359488     -1.8823214532     -2.7181456759
C     -1.6995767048     -0.5742535764     -3.1874249272
C     -2.5837901579     0.5406331866     -2.9664921003
C     -2.0603483716     1.8964535244     -2.9509236285
C     -0.2800441313     -0.3221175353     -3.4968406288
C     -0.6354420609     2.1164850894     -3.1668717959
C     -0.0604349385     3.3180469207     -2.6989779586
C     2.4369512322     4.0980216986     -0.2776646283
C     0.0939218264     4.5289807262     -0.7100425995
C     1.4204094949     4.2753955609     -1.1765804673
C     2.2473485286     2.4022074638     -2.555960827
C     1.337196941     3.4327715778     -2.343051973
C     3.5321070234     3.2305349213     -0.5968499814
C     3.4459991329     2.3403312849     -1.7005874412
C     0.2033659391     -2.7272535107     -3.1374034764
C     0.6465529386     -1.4490326211     -3.5138685548
C     0.2573537582     1.0033318668     -3.4225625806
C     2.0455343875     -1.2150814067     -3.4146236791
C     2.5573280852     0.1001312227     -3.2509699658
C     1.7197355192     1.2059279211     -3.2161331918
C     3.7775043481     0.0217201301     -2.4504211563
C     4.1904032714     1.0967026549     -1.6156161002
C     4.8535522402     0.7474363766     -0.405949211
C     4.7481017178     1.591620897     0.7558995833
C     4.1011094361     2.8087334566     0.6609830192
C     3.9706805465     -1.3315153895     -2.1000613591
C     3.8904209582     -2.8196143688     -0.1716268571
C     4.4568594661     -1.6767662394     -0.7997633623
C     4.8885161762     -0.6276442697     0.0390467544
C     1.0578448565     -3.6547175603     -2.4434136825
C     2.9171475778     -3.6643681565     -0.847365053
C     2.4008166208     -3.3028758084     -2.129373361
C     2.9083746055     -2.1091098406     -2.7131044914
C     -0.2361474241     -4.5292124601     0.859873063
C     2.0546307462     -4.2422314739     0.1269311548
C     0.7130558077     -4.601111489     -0.1952272181
C     0.2352568534     -4.3563961353     -1.5083991235
C     2.6403551329     0.1223726703     3.3391369269
C     2.6620413433     -1.2218970045     2.9256645838
C     1.4143594278     -1.963522575     2.9865187146
C     2.3697281495     -3.6134988021     1.3864108548
C     1.3542798246     -3.2435406756     2.283048433
C     0.0840251995     -3.8434188384     2.065481634
C     4.5790703509     -0.632296911     1.4509371981
C     4.5242228274     0.7335754587     1.9000822021
C     3.5935120436     1.0970874888     2.8600813891
C     3.5238744243     -2.7716361393     1.1953923778
C     3.7265036483     -1.6239436637     2.0021007234


