94

 C     0.576044216     -3.2806217045     -2.7370236018
C     -0.6619010136     -2.6707759209     -3.0030579799
C     -1.9070764558     -0.5590739818     -3.4941875189
C     -3.0602864343     -1.1740083658     -2.9300964066
C     -4.0861855259     -0.4179763747     -2.265785247
C     -4.0298795489     0.9488747305     -2.2612833213
C     1.80897048     -2.6114712043     -2.9435228579
C     1.865583072     -1.2831231221     -3.4179849759
C     0.6012397187     -0.6166062     -3.7304547616
C     -0.6609583501     -1.3134530437     -3.5403607145
C     1.8218899826     1.5240374568     -3.6001431602
C     0.6034623708     0.8387567842     -3.8467135396
C     -0.6329739076     1.5957690992     -3.7207340348
C     -1.8940202686     0.8996304615     -3.5673455265
C     -2.9854860977     1.6109433197     -2.9966472256
C     3.0162563087     0.8732590875     -3.1666883984
C     3.0752380914     -0.5297358321     -3.0808172886
C     4.0318969027     -1.0594927587     -2.1629376106
C     -4.2261373941     1.6761988482     1.3343758967
C     -4.656070566     1.024677856     0.1488327814
C     -4.3456768896     1.7012213237     -1.0607277685
C     -1.5863456743     3.4939051852     -2.4157544344
C     -2.7921282702     2.866543478     -2.3340763358
C     -3.5162279012     2.8633057538     -1.0789065374
C     -2.8950675131     3.3761535348     0.0957614095
C     -3.338903473     2.79487606     1.2998627802
C     -0.5544213815     2.936635272     -3.2353302085
C     -4.7627493299     -0.4408366318     0.1431785098
C     -4.5134100025     -1.1323979005     -1.0741475572
C     -3.8660562618     0.9159085218     2.5110583497
C     -3.9568530435     -0.4553069273     2.5201763687
C     -4.4303136578     -1.1494570081     1.3449873762
C     -2.7816888997     1.563005394     3.1945796353
C     -1.7698854266     0.8039926454     3.8387489189
C     -0.5521084701     1.465277151     4.022513694
C     -0.9738014695     4.112599613     -1.2443609165
C     -1.5350650535     3.9435489656     0.0314825129
C     -0.6178232827     3.8344663393     1.1578840515
C     -1.1438660909     3.252023029     2.3925510826
C     -2.4586889304     2.7413136567     2.4473786476
C     -0.2460085183     2.6919172452     3.3315697629
C     -3.7881269249     -2.4200873945     1.3162342576
C     -3.5106993364     -3.0713891897     0.0930715184
C     -3.8829390625     -2.4100347673     -1.107605164
C     -2.3772692936     -3.9181761592     0.0493889677
C     -2.8165857154     -2.4572467322     2.3990164688
C     -0.400271865     -2.6271936039     2.9352324322
C     -1.587333848     -3.1487322973     2.2877987662
C     -1.4477623438     -3.9889579598     1.1501046543
C     2.0470719375     -2.3811790526     2.8596399851
C     0.9008214566     -3.0832691664     2.4516169048
C     -1.7673186138     -0.6661866536     3.7233885734
C     -2.9105512236     -1.2476101167     3.1363676842
C     0.665685809     0.7491825614     4.2128888877
C     0.7099765468     -0.6672712563     4.0349101363
C     -0.5044681188     -1.3918706398     3.6967603026
C     1.9639102113     -1.2022527374     3.6660612991
C     -0.2960072199     -4.477663223     -0.7793874201
C     -1.6168944091     -4.0634480552     -1.1518440528
C     -1.8148276288     -3.1954483815     -2.2680884787
C     -2.9903477172     -2.4292485331     -2.2464917881
C     0.7523724604     -4.1553796138     -1.5905805249
C     1.0259946986     -3.8839294883     1.2347415998
C     -0.1557857824     -4.3600510255     0.6483667068
C     2.0472525152     -3.9227071057     -1.0170834589
C     2.2229286555     -3.7576075615     0.3758107174
C     3.2621501127     -2.3163422783     2.0755984725
C     3.3448190865     -2.9338926703     0.8074385574
C     4.1693783667     -2.2904553504     -0.1592972498
C     3.8125733849     -2.3411295522     -1.5553015814
C     2.767223534     -3.1165374453     -1.9694228349
C     3.8809811758     -1.0614160437     2.3445770888
C     4.4709897317     1.0952676193     1.3327465338
C     4.56899628     -0.3307976007     1.3251429866
C     4.7180054859     -0.9889320222     0.0706656889
C     1.7336772588     1.5780175053     3.7651891028
C     3.64856973     1.7646832343     2.2894611485
C     2.9567673137     1.0335127189     3.2983792358
C     3.0876524056     -0.3741042815     3.3372476955
C     0.4294608308     4.1174104217     -1.456688668
C     1.3517049976     3.9739877558     -0.4017843423
C     0.8173258659     3.8586379483     0.9465265946
C     3.0250417549     2.8937603997     1.6427800542
C     1.712657936     3.3247487594     1.9875287694
C     1.1566379758     2.7591495381     3.1553544146
C     2.9122420269     2.9056974106     -2.0400229213
C     1.8393028739     2.8305148849     -2.9857538109
C     0.6683960298     3.4852914821     -2.7465844072
C     3.4970588652     2.9344563972     0.2988630132
C     2.6830206582     3.442102859     -0.743487996
C     4.651550565     -0.2387753277     -1.1714656521
C     4.3950055157     1.8324938951     0.0993687413
C     4.4535472711     1.169711184     -1.1565487873
C     3.7039117391     1.7235228753     -2.2250526713


