94

 C     1.5478549854     0.9704726167     3.7793192127
C     0.2496934572     1.4897993824     3.6848936697
C     -0.8662036225     0.5595363713     3.7816127519
C     -2.193359042     1.0411350902     3.3920519165
C     -2.3227983703     2.3633838201     2.8483274096
C     -3.2098201064     0.1426235225     3.0541638357
C     1.7882560331     -0.4289993342     3.8833512951
C     0.7448481655     -1.365851503     3.8300714093
C     -0.6220518295     -0.8671193098     3.828767987
C     -1.3523978413     -3.0378199681     2.8615085082
C     -1.6903423468     -1.784365984     3.4279058133
C     -2.9615043611     -1.2753951121     3.0535488714
C     0.0229431926     -3.4465241224     2.7233619017
C     1.0689710102     -2.6737762406     3.2468111972
C     2.3414127845     -2.896471404     2.6483323616
C     -4.1966697162     0.4344229774     2.0357178193
C     -4.1580756051     1.6715616248     1.3320672426
C     -3.2622038776     2.6594114977     1.8174996335
C     -4.4405064672     1.6706527733     -0.0523627483
C     -4.4770044642     -0.7791673895     1.3582642671
C     -4.2449911224     -1.9551288436     -0.7652727981
C     -4.7123233921     -0.8027768129     -0.0537854014
C     -4.7214675178     0.4492826871     -0.7422136326
C     -2.1027240611     -3.600242404     1.7794883557
C     -3.2807390222     -2.9778812858     1.3083819968
C     -3.7541014389     -1.8575923478     2.0306530568
C     -3.5330004583     -3.0290094043     -0.0910988777
C     -3.6817909949     2.5245727085     -0.9485557971
C     -2.7211264685     3.4613240078     -0.4768395594
C     -2.6509720056     3.6241843498     0.9274380986
C     -1.43572584     4.0485028801     1.5502133125
C     -0.3849769653     4.4722094161     0.7799708717
C     -3.495248558     1.8426888688     -2.1670461582
C     -1.9601358965     0.9359500491     -3.7842075202
C     -2.3044918782     2.0144110684     -2.951758033
C     -1.2644814119     2.9456612718     -2.5028185892
C     -1.5315686322     3.7243800557     -1.3009251729
C     -0.437204377     4.3394332035     -0.6649662679
C     -3.7324998311     -1.8427331573     -2.0863032465
C     -3.6580680099     -0.5716152382     -2.728208993
C     -4.1686969784     0.562080894     -2.0638824811
C     -2.5807359362     -0.3663800968     -3.6295622157
C     2.9802572751     3.5782875483     0.0480770257
C     0.9537436842     4.2477801786     1.2269263704
C     1.7782459775     4.2292303635     0.0461637132
C     3.4167792045     2.8758239588     -1.1292927692
C     2.7944773627     1.652936934     -3.0804480867
C     2.5614441046     2.7714743161     -2.2603327828
C     -0.6114639806     0.7294446537     -4.1828769465
C     0.4117612135     1.6312723988     -3.823871505
C     0.1027231299     2.7612333078     -2.9548074722
C     1.2133331533     3.3678721436     -2.2275694695
C     0.9022393118     4.17171014     -1.1217611795
C     1.7241393436     1.0925225412     -3.8622211907
C     3.4075510661     2.8633834294     1.2191416119
C     2.5351083827     2.7457563749     2.3405042296
C     1.2412729389     3.4111779984     2.3366088064
C     0.1084574398     2.8074592082     3.0488565823
C     -1.184805807     3.2257769017     2.7046102474
C     2.683700764     1.5782307583     3.1092190461
C     4.207038189     1.7661706361     0.7660777592
C     4.2856958445     0.5555817053     1.4863385212
C     3.5963646705     0.5426109741     2.739954908
C     3.3550258226     -1.8695184393     2.6588213434
C     3.0902340254     -0.6816238715     3.2890383851
C     3.6969303607     0.6058967018     -2.7045218797
C     4.3230978264     0.5817269234     -1.4269625909
C     4.2227710115     1.7805671667     -0.6850352057
C     4.4793291783     -0.687261976     -0.714405614
C     4.4753299392     -0.6993678516     0.7510912158
C     4.0855836713     -1.891980263     1.4066422606
C     3.1818750551     -0.5994689027     -3.2959476364
C     3.3319945861     -1.796394611     -2.6457254902
C     4.0477138427     -1.860156677     -1.3925958658
C     -0.3791517715     -0.6879536707     -4.229936524
C     0.8834753414     -1.2391362324     -3.9848091266
C     1.9590421083     -0.3144872874     -3.9926840031
C     -2.6507721544     -2.7913989166     -2.2189085667
C     -0.1987603722     -3.0664390405     -2.5917255311
C     -1.5145789975     -2.5292981635     -2.9895870701
C     -1.5724833377     -1.3471250256     -3.8097744714
C     2.2362741335     -2.7543144096     -2.6115891726
C     0.9815794807     -2.4776737755     -3.1920755276
C     -1.1452747137     -4.1697602026     0.8628565082
C     2.3487602968     -3.4897519228     -1.402285606
C     1.217143605     -3.9791296556     -0.7266615191
C     -0.0839349669     -3.8165037154     -1.3581876591
C     -1.2791030583     -4.0138570581     -0.5322104483
C     -2.5395192973     -3.5146956678     -0.977262034
C     3.5192697741     -2.9869632295     -0.6887162943
C     3.5664765693     -3.0150001447     0.6832157646
C     2.4662373752     -3.6050053397     1.4140408958
C     1.3281082828     -4.111000795     0.731018316
C     0.1477419326     -4.1478215959     1.4906204245


