94

 C     -2.4670009894     -3.9023244833     -0.5052727779
C     -2.6832608182     -3.2997693596     -1.7129680099
C     -3.6362603117     -2.2192042519     -1.8363763881
C     -3.209604961     -1.4491228527     -2.9620582254
C     -3.5465720471     -0.1195302322     -3.0361766852
C     -1.1540924675     -4.3738528456     -0.1708905351
C     -0.3181791559     1.364816734     -4.0181703682
C     -2.5942220707     0.8193471098     -3.5964184862
C     -1.3094102239     0.3765747735     -4.0224713403
C     -1.8963399901     -1.9152928724     -3.3872881173
C     0.4797072729     -1.3856497084     -3.6141066681
C     -0.9115524068     -1.0305454889     -3.8411255197
C     2.7794400089     -0.5278393363     -3.3505564758
C     1.4719873913     -0.3429438389     -3.821370137
C     1.0674843352     1.0121009731     -3.9782957797
C     -0.2311624135     -3.3511089053     -2.2279813938
C     -1.565921384     -3.0558655905     -2.5984940579
C     3.5229900471     -3.0434785797     -0.2074895408
C     2.397048739     -3.4015401599     -1.0017372428
C     2.1755977729     -2.6688102396     -2.2490800993
C     0.8244416689     -2.5405407336     -2.8020629972
C     3.1497054144     -1.7193915032     -2.6323813861
C     -0.019647856     -4.0912382503     -0.9795832682
C     1.3181060956     -4.1680435315     1.0850708002
C     1.2775055608     -4.0503565015     -0.3336770812
C     -0.4911210768     2.6281818417     -3.3596480617
C     -1.6859223399     2.9480228864     -2.6900062902
C     -2.7798199073     2.0735200668     -2.9522224874
C     -3.830150532     1.8920905585     -1.974038555
C     -3.8124778085     2.627414072     -0.8270177472
C     0.7818914548     3.0258671735     -2.8578330807
C     0.9214495341     3.65749137     -1.6132576539
C     -0.3055067347     3.9841458635     -0.8612001621
C     -1.5951795044     3.6655338922     -1.4280259161
C     -2.7257521566     3.554929185     -0.5512000196
C     1.064971107     4.1127377026     1.1711799183
C     -0.2139465121     4.1843305022     0.5807972058
C     3.5762842578     0.5722559713     -2.8740151808
C     2.9958045424     1.8592209137     -2.6948935646
C     1.7678526272     2.0699353646     -3.3416735213
C     3.2762044508     2.6362607897     -1.4956830513
C     2.2230061821     3.5183727692     -0.9502392712
C     2.2609955966     3.8128722155     0.4166893539
C     -4.3256744769     -0.0226920579     1.6971301782
C     -4.5808050612     0.6220367812     0.4700920995
C     -4.2547638655     2.0226699449     0.4099631027
C     -3.5495775894     2.6721900396     1.4501069943
C     -2.0102280687     2.3520198295     3.2938865717
C     -3.208061759     1.9827363791     2.6415223984
C     -3.6284419322     0.635286119     2.7626406587
C     -1.3595887086     3.9236448596     1.4519265358
C     -2.6006408245     3.6178135321     0.8452294438
C     -1.1510646016     3.3944214109     2.7581987158
C     -4.5487598788     -0.183033094     -0.7637362475
C     -4.2634131568     0.5011070183     -1.96787763
C     -3.9966446972     -1.4323485249     1.7538148639
C     -3.9669960997     -2.2406007405     0.5956853502
C     -4.2377797617     -1.6143537952     -0.7016215743
C     -3.1318689384     -3.3885001775     0.6767860238
C     -3.062886684     -1.6170701062     2.8155015309
C     -2.0822552854     -2.626239772     2.7981322805
C     -2.2375910249     -3.5970360558     1.7731452415
C     0.1285527211     -4.1391042856     1.8736358627
C     -1.0821973277     -4.2972704846     1.2632563747
C     -1.1769091539     1.3747006471     3.9112653522
C     -1.4892049565     -0.0067261377     3.8659105578
C     -2.784842106     -0.3379144286     3.4021577623
C     -0.39747788     -0.9740871238     3.761923129
C     -0.7473182752     -2.3207508281     3.3345004432
C     0.3014320178     -3.166712402     2.9486994556
C     0.1880806216     1.8245550768     3.8422183876
C     2.4822954108     1.4609349996     3.0226532787
C     1.2572291715     0.9383230349     3.6553999752
C     0.9765103295     -0.5035768938     3.6644169883
C     4.3665647187     1.0235045291     1.4742260547
C     3.4849109901     0.5478547992     2.4873612214
C     3.2679643864     -0.8839848017     2.597962285
C     2.0213201921     -1.3917980809     3.1983604349
C     1.6503071348     -2.724664299     2.9082933299
C     4.1081783593     2.2752169928     0.8053666734
C     3.1618969307     3.1225629369     1.3019384471
C     2.4482009535     2.7782135373     2.503431318
C     1.2411069621     3.5488660086     2.476881784
C     0.1588274114     3.1263303538     3.2168475993
C     4.5146354016     0.0445778578     -1.9286309736
C     4.8432329738     0.801063408     -0.8149674435
C     4.2479591546     2.1068432509     -0.6163740344
C     4.7439734617     -1.2092378219     0.5990689511
C     4.4305054018     -2.0052832158     -0.5814129155
C     4.2761703689     -1.3798841532     -1.8043673361
C     4.93571563     0.1536611113     0.4841712237
C     2.304225362     -3.4653900319     1.8491651278
C     3.9813025523     -1.7252256082     1.7001352486
C     3.4002431037     -2.9587930007     1.2314887645


