94

 C     -0.7546233328     -2.8442048572     3.0705073659
C     -2.0127653035     -2.9559066534     2.4560619607
C     -2.9675363265     -1.9768955569     2.8464006522
C     -4.0914985389     -1.6906435587     2.0242090883
C     -4.2382617698     -2.3538851502     0.8084896695
C     0.4123144445     -3.3856139836     2.4973516362
C     0.419416398     -3.9156918682     1.1851863315
C     -0.8570981062     -3.9928546496     0.4741265235
C     -2.0804849609     -3.5804556874     1.1431167431
C     -3.2389266812     -3.2810891329     0.3607554584
C     0.4012685965     -4.0655170192     -1.6347220616
C     -0.8445356251     -4.0319003293     -0.9854379258
C     3.5528372166     -1.3905722438     2.6340873134
C     2.7647172101     -2.5507327978     2.3452529375
C     1.5428442253     -2.6290230167     3.0109829694
C     2.8866513295     -3.233870358     1.0594386463
C     1.6988734986     -3.8908868055     0.4795651509
C     1.6452857895     -4.0248518077     -0.9189254024
C     -4.8475614286     0.4251889575     1.0378312808
C     -5.0001585693     -0.2577381971     -0.248698392
C     -4.3843444297     -0.2721274073     2.1329228651
C     -4.7028143562     -1.6057659893     -0.3511970319
C     -3.9985764922     -2.0773824883     -1.503703919
C     -3.5554066901     -1.1764020353     -2.5130200454
C     -2.4448488314     -1.5951392026     -3.2748219106
C     -1.9753534354     -3.507727532     -1.7502885596
C     -3.1497170566     -3.1605975798     -1.0650628134
C     -1.7424983092     -2.8032571082     -2.9685780968
C     -3.5472895356     2.8555571646     -1.2208583859
C     -4.3933995292     1.7619668913     0.8026056251
C     -4.370936744     1.9344975557     -0.6353060932
C     -3.7905235172     0.2505327147     -2.3743997694
C     -4.5931914985     0.6608188578     -1.2774233825
C     -2.7981932715     2.5084372235     -2.4036985514
C     -2.8057623029     1.1994129095     -2.9195975751
C     -2.7398355891     3.7117495771     -0.403026895
C     -2.6227769326     3.4577710633     1.0050308731
C     -3.403838642     2.3783854052     1.6098992352
C     -2.833300909     1.6037213115     2.7166637544
C     -3.3735949896     0.322907803     2.9726799746
C     -1.4016052399     3.8126864335     1.6045735779
C     -1.6088581623     4.0939482798     -1.1823719938
C     0.7921483069     4.2777810602     -1.3012017449
C     -0.3958710682     4.4816151683     -0.5659598913
C     -0.3159434806     4.3911842518     0.854162552
C     -1.4849218512     -0.6572350664     -3.79678692
C     -1.5742441372     0.7188577026     -3.5489063926
C     -0.329306183     1.4787638399     -3.5004591041
C     -0.3976329175     2.8196012712     -2.9562929494
C     -1.6115837309     3.2954688348     -2.3908846376
C     0.7818046079     3.4380250089     -2.4999792947
C     -0.8364050667     3.0253732179     2.670340861
C     -1.4666383933     1.8678689087     3.1640103922
C     -0.6135210326     0.8184561674     3.6889742647
C     -1.2029119495     -0.5103110743     3.8342076549
C     -2.5480943194     -0.7350147753     3.4675874879
C     -0.3756134708     -1.6478344461     3.8021944204
C     0.5798810736     3.1435294317     2.6027459364
C     1.4371968972     2.1253623612     3.029070057
C     0.8291600944     0.9453028674     3.6321728994
C     2.9738859234     -0.2399620833     3.2635468613
C     1.6470547793     -0.2521247557     3.7351580389
C     1.0295166348     -1.5287642785     3.7714732197
C     4.1017451247     2.4645020713     0.3898587555
C     3.1101700904     2.9318462662     1.2902507504
C     2.7901139479     2.0999584892     2.4537538472
C     3.5609249797     0.944126069     2.6688607946
C     0.9066286168     4.0105858301     1.4796020135
C     2.0350727338     4.087590129     -0.652482338
C     2.1058196069     3.8506651802     0.759837731
C     4.909886247     0.5452839818     -0.6787169252
C     4.8041696287     1.2463696061     0.5982379448
C     4.5819038244     0.5140641815     1.7573328331
C     4.8684022954     -0.8338327167     -0.717512069
C     2.8561538871     3.3071346166     -1.5437149085
C     4.2072991635     1.3032578114     -1.6730456212
C     3.8744495997     2.5600486699     -1.0485033904
C     -0.2150267174     -1.3156317055     -3.9245968342
C     2.1525986384     -1.4271210928     -3.2478241563
C     1.0042162869     -0.6419755257     -3.7266581642
C     0.9626701086     0.799472045     -3.5603101983
C     4.1329042151     -1.4809351229     -1.7659232259
C     3.3101562489     -0.755092648     -2.6741324278
C     3.3283967711     0.6963492865     -2.6172760697
C     2.1623780189     1.4627222963     -3.0780033772
C     2.0396220057     2.7990286511     -2.6195255334
C     3.6954319967     -2.7429079721     -1.2243357894
C     2.6096889401     -3.3683629602     -1.7643164388
C     1.9210528498     -2.7744555194     -2.8780577777
C     0.6081633268     -3.3481586428     -2.8751260101
C     -0.4172445751     -2.6685854284     -3.4778490281
C     4.5550984683     -0.9323710845     1.7141397465
C     4.7059908655     -1.6000326413     0.5093255259
C     3.9044504879     -2.7666948654     0.1992758019


