94

 C     -3.754975598     -2.8422250551     0.0790163173
C     -2.7463547655     -3.7817583921     -0.2421132724
C     -4.7699591892     -0.2596759613     0.8445450154
C     -4.2926598704     -1.1157447781     1.8039763983
C     -3.7785000221     -2.4180835964     1.4333657208
C     -2.0284387231     1.1268931062     3.670163529
C     -3.508222947     -0.5859929304     2.8894655408
C     -3.2040374484     0.8026916947     2.9726273608
C     -3.6649014659     1.7163482209     1.9361885194
C     -2.8439041616     2.8881513545     1.5909839573
C     -4.5108231054     1.1664977632     0.9407921402
C     -2.9544242418     3.4198849466     0.2959815594
C     -2.6905306881     -2.6943842872     2.3141290932
C     -1.5747975128     -3.4707068529     1.9285548279
C     -1.7022114085     -4.1160475085     0.6713156514
C     -0.2424856856     -3.1588259758     2.4615754993
C     0.9118838583     -3.7068345656     1.7810149667
C     2.1854599668     -3.1872945405     2.0963792359
C     -2.5272343753     -1.5715481589     3.2072474196
C     -1.0878544259     0.130270676     4.0650453695
C     -1.251359331     -1.2250131074     3.6956797886
C     -0.0799526622     -2.0112289134     3.3278645074
C     1.2237602995     -1.3802838067     3.4614752139
C     2.3282164145     -2.0128208608     2.8876675474
C     0.7633661032     -4.328710651     0.4606087493
C     -0.5203470731     -4.4635444575     -0.0885376423
C     3.2947411925     -3.2201971941     1.161642333
C     3.0950451624     -3.6807279842     -0.1272636289
C     1.8148640675     -4.2075025455     -0.4894144547
C     4.1104352328     -2.0479319367     1.3910407062
C     3.6064277453     -2.9220618994     -1.2553316963
C     4.4156216311     -1.8294408761     -1.0414516856
C     4.7139031527     -1.3941012529     0.3192867724
C     0.2177794016     0.7459861488     4.121944357
C     1.3719431957     0.0468044303     3.7600551442
C     3.5463981396     0.1287292726     2.4393472106
C     3.5062869241     -1.2766006716     2.4305850967
C     1.5327774279     -3.774073469     -1.8273601921
C     0.224959428     -3.6492220795     -2.2993499566
C     -0.7805850381     -4.2205245899     -1.4673051963
C     -2.1524697935     -3.8161154437     -1.5685537074
C     -2.4982119107     -2.8770537119     -2.5041545864
C     2.5721108979     -2.8667759951     -2.2533366173
C     2.2637299142     -1.6740160511     -2.9502729808
C     0.8750852008     -1.4661230905     -3.3960851707
C     -0.0966306242     -2.5180753782     -3.1612968263
C     -1.4708810873     -2.2189555444     -3.2991700499
C     1.3421236102     0.9925444918     -3.583796026
C     0.4115521784     -0.1275742856     -3.6907709601
C     -1.0226641955     0.1593847231     -3.7142094424
C     -1.9188280138     -0.9063116573     -3.5460002185
C     0.7946946956     2.2929157493     -3.5040605669
C     2.7038771296     0.7943807311     -3.1017835775
C     3.1671736638     -0.542902521     -2.7787214645
C     3.3660565901     1.8949279399     -2.4897920918
C     4.2570215862     -0.671317539     -1.8647843116
C     -4.7414367365     -0.6551029875     -0.5600711772
C     -4.2142253165     -1.9096434398     -0.9589303188
C     -3.5558922912     -1.9308724432     -2.2270586111
C     -3.2309086667     -0.7342446151     -2.9165707224
C     -3.6688081963     0.5267965268     -2.471369301
C     -4.5111901005     0.5270238341     -1.322448558
C     -3.7288294394     2.7568738739     -0.7169233871
C     -4.4714107238     1.6473188025     -0.4010507777
C     -0.6228372142     2.5354774803     -3.4066673525
C     -1.5530792989     1.4986850317     -3.4613252432
C     -2.8456135626     1.68740298     -2.7829779845
C     -3.0132367621     2.8316454926     -1.9737945125
C     0.4404829468     4.0722589318     -2.0049382033
C     -0.8137206471     3.6769581305     -2.5432643142
C     -1.9518254137     3.762630068     -1.7720419117
C     0.5987895721     4.3384303177     -0.6219777418
C     -0.5963300777     4.2755326362     0.233828558
C     -1.8444638677     4.0813860582     -0.3739394356
C     2.9607723194     3.5454531432     -0.8558738793
C     2.6799944199     3.117079778     -2.2139092712
C     1.4417941772     3.3330139345     -2.7473398458
C     1.9976741173     3.793817315     1.3300572288
C     1.9171916524     4.081680629     -0.0475626312
C     4.6920654611     0.4506684592     -1.0686801242
C     2.9417310866     2.854344657     1.8440013891
C     3.8718863706     2.1934054835     1.0188741581
C     3.9287367045     2.6430796328     -0.3307152179
C     4.2617479024     1.7029567104     -1.3825909919
C     0.04975931     2.135282405     3.8208181055
C     1.0832586897     2.8325717781     3.2288895197
C     2.3313697786     2.1849491569     2.9816443697
C     2.5036680759     0.8084027917     3.2014684213
C     4.2483655957     0.8183365112     1.3535816825
C     4.8103959001     0.0268532373     0.3210462424
C     -0.4908378475     3.8900166965     1.6432164167
C     -1.6018148637     3.1794818443     2.3093339929
C     -1.2958743649     2.3577301313     3.4107910699
C     0.8068018639     3.7448878938     2.1657311336


