90 

C -1.80391 2.52395 2.78560
C -2.55987 2.94026 1.66498
C -3.76901 2.25237 1.44544
C -4.38324 2.20328 .13723
C -3.73362 2.80536 -.92299
C -.39872 2.84002 2.89671
C 1.68492 3.39099 1.86717
C .29121 3.49520 1.84410
C -.39213 3.73780 .58056
C -1.85399 3.55774 .53570
C -2.48129 3.50467 -.70672
C -4.88561 .23413 -1.23948
C -4.13503 .83328 -2.31914
C -5.01227 .91136 -.02688
C -3.64132 2.11936 -2.19104
C -2.36552 2.45116 -2.77995
C -1.60463 1.48312 -3.46414
C -.23798 1.77110 -3.63089
C 2.46575 3.51690 .66754
C 1.83863 3.55965 -.57528
C .37616 3.73508 -.62138
C -.30680 3.48166 -1.88305
C -1.70037 3.37251 -1.90532
C .38486 2.82056 -2.93061
C -4.62705 -1.17625 1.21018
C -4.52529 -1.88452 -.05410
C -4.82837 .18752 1.21654
C -4.57891 -1.18134 -1.23897
C -3.56324 -1.42458 -2.24742
C -3.55781 -2.94715 .10715
C -2.59619 -3.23342 -.88081
C -2.56129 -2.39214 -2.08259
C -2.01121 .08524 -3.42361
C -3.29076 -.19821 -2.91122
C .73629 .72497 -3.83007
C .41236 -.60706 -3.66288
C -1.00988 -.95738 -3.41656
C -1.32173 -2.19861 -2.78785
C -.23978 -3.09676 -2.48636
C -1.95931 -3.47633 1.87105
C -3.68203 -1.77933 2.13230
C -3.18818 -2.97046 1.49841
C -1.10365 -4.06608 .89588
C -.26244 -3.91126 -1.36340
C -1.38807 -3.91201 -.46805
C -1.14038 -2.75528 2.80038
C -1.50515 -1.50382 3.27914
C -2.84250 -.99888 2.94850
C -3.08170 .43646 2.97117
C -4.03884 1.00820 2.11005
C -2.03011 1.27769 3.39566
C .24183 -3.07709 2.49631
C 1.32123 -2.17343 2.79122
C 1.00656 -.92887 3.41127
C -.41666 -.58125 3.65510
C -.74451 .75061 3.81220
C 3.28550 -.16679 2.89987
C 2.00555 .11650 3.41030
C 3.56025 -2.93733 -.09803
C 2.59900 -3.21859 .89174
C 2.56178 -2.36863 2.08734
C 3.56182 -1.39730 2.24527
C .26688 -3.89965 1.37931
C 1.10872 -4.06937 -.87852
C 1.39266 -3.90375 .48411
C 1.59498 1.51314 3.44039
C .22716 1.79758 3.60486
C 2.35299 2.47834 2.74864
C 4.87966 .25763 1.22454
C 4.12739 .86261 2.29986
C 3.62996 2.14615 2.16200
C 5.00428 .92601 .00676
C 4.62502 -1.17178 -1.21433
C 4.52544 -1.87079 .05526
C 4.57721 -1.15864 1.23485
C 4.82222 .19246 -1.23113
C 1.96330 -3.48442 -1.85783
C 3.68147 -1.78443 -2.13175
C 3.19077 -2.97216 -1.48903
C 2.02020 1.25880 -3.41752
C 4.02996 1.00418 -2.13064
C 3.07429 .42340 -2.98681
C 2.83933 -1.01250 -2.95332
C 1.50350 -1.52379 -3.27981
C 1.14203 -2.77282 -2.79218
C 3.72023 2.82278 .88874
C 4.37177 2.21495 -.16707
C 3.75728 2.25285 -1.47544
C 2.54635 2.93597 -1.69995
C 1.79094 2.50886 -2.81693
