90 

C -3.99735 -1.89075 -1.61484
C -2.98647 -2.79280 -2.13950
C -4.34686 -1.94372 -.27817
C -2.45546 -3.78567 -1.34233
C -1.06913 -4.12178 -1.47281
C -3.39256 1.74798 -2.05737
C -4.03080 .59770 -1.53898
C -3.79866 -.60545 -2.23519
C -2.67329 -.71889 -3.11837
C -.43632 .19319 -3.60032
C -1.87087 .37897 -3.41778
C -2.37472 1.64628 -3.02403
C 1.78183 1.20013 -3.48481
C .40192 1.37683 -3.57759
C 1.64668 -4.16048 -.82427
C 1.23685 -3.40954 -1.94637
C -.18514 -3.36190 -2.26799
C -.72385 -2.23692 -3.01600
C -2.10879 -2.03718 -2.98879
C 2.12076 -2.37864 -2.44628
C 1.56249 -1.23863 -3.18587
C .13834 -1.10920 -3.38740
C 2.35421 -.08787 -3.31405
C -4.34916 .55609 -.11414
C -4.51863 -.71382 .46950
C -3.12021 2.91067 -1.23084
C -3.34064 2.87616 .14997
C -3.94643 1.67257 .74160
C -2.49016 3.70003 .95975
C -1.98487 3.58180 -1.78632
C .28140 4.34415 -1.38057
C -1.08538 4.29562 -.96969
C -1.37974 4.37508 .42187
C -.14163 2.68089 -3.15746
C -1.49869 2.78303 -2.87484
C .72277 3.61249 -2.49133
C -2.12343 3.28591 2.30028
C -2.64638 2.14194 2.81968
C -3.65968 1.40162 2.09103
C -3.57937 .05686 2.57025
C -4.04567 -.97382 1.80184
C -.72728 3.60008 2.51754
C .14038 2.66849 3.17927
C 1.49751 2.77608 2.89767
C 1.37321 4.38096 -.39226
C 1.07931 4.29503 .99907
C -.28771 4.33789 1.40986
C 1.98142 3.58109 1.81272
C -2.80439 -3.82981 .07357
C -3.68587 -2.90588 .59370
C -3.36548 -2.24987 1.83025
C -2.34626 -.10948 3.32107
C -.12668 -1.12325 3.38963
C -1.55014 -1.25668 3.18726
C -2.10413 -2.39552 2.44267
C 2.12310 -2.04288 2.98746
C .73906 -2.24690 3.01310
C .20448 -3.37050 2.25970
C -1.21696 -3.42144 1.93795
C -1.62421 -4.16909 .81269
C -.39898 1.36071 3.59247
C -1.77815 1.17959 3.49823
C 2.37761 1.64153 3.04150
C 1.87763 .37068 3.42839
C .44369 .17973 3.60937
C 2.68353 -.72368 3.12383
C -.64763 -4.58172 -.16777
C .67121 -4.58033 .15425
C 1.09082 -4.12441 1.46137
C 4.01105 -1.88455 1.61455
C 3.00313 -2.79219 2.13472
C 2.47591 -3.78329 1.33282
C 4.36064 -1.93032 .27764
C 3.39543 1.75061 2.07531
C 4.03686 .60447 1.55115
C 3.80861 -.60285 2.24136
C 2.48553 3.71215 -.93312
C 3.94753 1.68847 -.72460
C 3.33894 2.88794 -.12684
C 3.11929 2.91633 1.25438
C 4.52766 -.69652 -.46423
C 4.35445 .57000 .12595
C 4.05647 -.95258 -1.79810
C 3.58626 .07962 -2.56180
C 3.66138 1.42227 -2.07526
C 2.64599 2.16236 -2.80040
C 2.11959 3.30244 -2.27534
C 2.82540 -3.82045 -.08320
C 3.70381 -2.89122 -.59885
C 3.38139 -2.23113 -1.83270
