90 

C .69706 1.33477 -3.79493
C 1.43156 .15969 -3.54713
C 1.44658 -2.22480 -2.76854
C 2.80488 -2.06981 -2.45321
C 3.43980 -2.81146 -1.40374
C 2.71538 -3.76838 -.72075
C -.70631 1.33414 -3.79284
C -1.43802 .15825 -3.54283
C -.72095 -1.07777 -3.33393
C .71708 -1.07729 -3.33613
C -2.80496 -2.07215 -2.44519
C -1.44742 -2.22605 -2.76430
C -.72705 -3.31180 -2.13524
C .72893 -3.31137 -2.13754
C 1.39618 -4.08897 -1.16400
C -3.45532 -.78039 -2.49973
C -2.80160 .32801 -3.03795
C -3.23702 1.60361 -2.58773
C 4.33666 -1.91056 .69207
C 3.44287 -2.80018 1.41403
C 4.33521 -1.91605 -.69088
C 2.71678 -3.76230 .74036
C -.67292 -4.52573 .01746
C .68114 -4.52510 .01545
C 1.39873 -4.07921 1.18945
C -1.39120 -4.08988 -1.15987
C 4.01428 1.74079 1.39780
C 4.49163 .58967 .72285
C 4.35076 -.64377 1.39918
C 3.45886 -.75740 2.50372
C 2.80333 .35424 3.03355
C 3.23650 1.62693 2.57313
C 1.14461 2.65955 3.25935
C 2.34384 2.76991 2.62039
C -1.38856 -4.08093 1.19340
C -.72232 -3.29528 2.16100
C .73375 -3.29448 2.15895
C 1.45291 -2.20336 2.77969
C 2.81046 -2.05067 2.45938
C -.71356 -1.05229 3.34187
C .72469 -1.05165 3.34021
C 1.43991 .18668 3.53949
C .70611 1.36349 3.77929
C 4.48986 .58417 -.74155
C 4.34757 -.65466 -1.40773
C 3.54080 2.91581 .66768
C 3.53928 2.91097 -.70261
C 4.01077 1.73026 -1.42421
C 2.42564 3.48374 1.37411
C 2.33736 2.75020 -2.65121
C 3.23004 1.60740 -2.59665
C 2.79602 .33097 -3.04564
C 3.45297 -.77683 -2.50904
C 1.13648 2.63486 -3.28575
C .00188 3.35634 2.74348
C -.00003 3.89181 1.43702
C 1.26217 3.92700 .70925
C 1.26054 3.92169 -.74616
C 2.42242 3.47380 -1.41064
C -.00491 3.33551 -2.77216
C -.00351 3.88114 -1.46993
C -1.14664 2.63349 -3.28216
C -2.34606 2.74740 -2.64414
C -2.42884 3.47088 -1.40365
C -2.42559 3.48124 1.38062
C -1.26572 3.92048 -.74242
C -1.26408 3.92604 .71290
C -4.01231 1.73638 1.40815
C -3.54218 2.91235 .67721
C -3.54371 2.90729 -.69297
C -4.34537 -.64889 1.41048
C -4.48970 .58447 .73446
C -1.13866 2.65838 3.26179
C -3.45047 -.76144 2.51269
C -2.79505 .35112 3.04044
C -3.23111 1.62333 2.58124
C -2.33977 2.76749 2.62621
C -2.70813 -3.76524 .74784
C -3.43406 -2.80416 1.42325
C -2.80013 -2.05378 2.46680
C -1.44153 -2.20507 2.78353
C -1.43010 .18511 3.54278
C -.69731 1.36277 3.78081
C -4.33193 -1.92069 -.67946
C -3.43664 -2.81460 -1.39430
C -2.70963 -3.77080 -.71326
C -4.33092 -1.91568 .70345
C -4.01530 1.72576 -1.41343
C -4.49110 .57898 -.72979
C -4.34785 -.65951 -1.39634
