90 

C -4.50657 -.86151 1.24967
C -3.76642 -1.88322 1.97345
C -4.69111 -.97799 -.11406
C -3.35684 -3.03445 1.33131
C -2.09039 -3.60560 1.66553
C -3.22645 2.61853 1.51903
C -4.00849 1.56780 .99019
C -4.13846 .41821 1.80136
C -3.19825 .17789 2.85194
C -2.26630 1.13767 3.22689
C -2.44552 2.44039 2.67899
C -.13999 3.03417 3.15656
C -1.34143 3.37028 2.60557
C .61441 -4.21937 1.37096
C .25188 -3.25164 2.33455
C -1.15997 -2.92823 2.48566
C -1.54881 -1.66675 3.07816
C -2.86770 -1.22970 2.87811
C .86564 -.99892 3.32366
C -.52913 -.67716 3.46467
C -.93155 .69883 3.62888
C .06095 1.69381 3.70953
C -4.13341 1.43917 -.46140
C -4.50391 .17999 -.96668
C -2.54953 3.57753 .65380
C -2.58932 3.43473 -.74622
C -3.38745 2.35086 -1.33152
C -1.47668 3.94527 -1.46202
C -.29008 4.34936 -.79418
C -.18664 4.31127 .60815
C -1.38183 4.03201 1.31953
C -1.07929 3.36756 -2.72737
C -1.79616 2.32909 -3.25061
C -3.01917 1.89461 -2.60981
C -3.19013 .52139 -2.97900
C -3.95073 -.30675 -2.20240
C .36294 3.34004 -2.78712
C 1.05032 2.21429 -3.31040
C 2.38120 2.06323 -2.90925
C 2.10294 3.68309 -1.07974
C .84937 4.00262 -1.63427
C 2.93331 2.83338 -1.85221
C 2.26389 3.70937 .37436
C 1.09327 3.45255 2.52287
C 1.10835 3.99034 1.22059
C 3.33073 2.96861 .91765
C -3.55001 -3.16026 -.11054
C -4.15288 -2.13842 -.81338
C -3.56425 -1.69157 -2.04454
C -1.95354 .02684 -3.55571
C -.01090 -1.42800 -3.27642
C -1.44432 -1.23973 -3.23697
C -2.30601 -2.15597 -2.47854
C 1.93009 -2.75322 -2.53655
C .54535 -2.66137 -2.70568
C -.29441 -3.55778 -1.92638
C -1.71923 -3.28136 -1.78314
C -2.39358 -3.80395 -.65960
C .28498 1.02281 -3.69949
C -1.10152 1.14737 -3.75395
C 3.01783 .76061 -2.91873
C 2.27345 -.40645 -3.22443
C .84905 -.30606 -3.53401
C 2.78684 -1.61315 -2.74289
C -1.63495 -4.28437 .47181
C -.31878 -4.57452 .32470
C .32028 -4.37901 -.95774
C 3.67627 -2.84589 -.98104
C 2.53552 -3.56591 -1.51716
C 1.72499 -4.31260 -.68728
C 3.86065 -2.77803 .38925
C 4.01598 .74833 -1.92244
C 4.34153 -.44868 -1.22992
C 3.84334 -1.64610 -1.77899
C 4.43700 .88079 .85715
C 4.17220 2.10637 .10662
C 3.97614 2.03843 -1.24742
C 4.23552 -1.51481 .99378
C 4.55337 -.37911 .21588
C 2.08853 2.52318 2.95183
C 3.48074 -1.36974 2.19434
C 3.15156 -.11470 2.70549
C 3.80153 1.00219 2.11442
C 3.21100 2.32771 2.19051
C 1.90576 -4.22362 .75866
C 2.89537 -3.41017 1.27154
C 2.56817 -2.48510 2.31757
C 1.25752 -2.31365 2.78701
C 1.85033 .05637 3.35608
C 1.42273 1.37885 3.58107
