90 

C 2.36684 2.41894 -2.75945
C 1.02065 2.21132 -3.12609
C .02637 3.12157 -2.59979
C -1.37889 2.74449 -2.61547
C -2.26151 3.44867 -1.76927
C -3.48949 2.87085 -1.30457
C -1.76946 1.41851 -3.07509
C -3.04578 .96053 -2.73660
C -3.90901 1.66771 -1.82959
C 3.31117 1.33467 -2.70983
C .62104 .87771 -3.57766
C -.75083 .43342 -3.45906
C 2.96648 .11771 -3.21737
C 1.62229 -.09488 -3.71048
C 4.41140 .37736 .67965
C 4.33852 .23583 -.72466
C 4.05472 1.40833 -1.46306
C -4.08700 2.09850 .94769
C -4.66217 .89742 .37198
C -3.59230 3.10373 .13172
C -4.58571 .69164 -.99418
C -4.23352 -.62355 -1.49628
C -4.11556 -1.74088 -.64579
C -3.33710 -2.82421 -1.13138
C 1.33978 -1.48305 -3.57954
C .04401 -1.94135 -3.35481
C -1.03920 -.97103 -3.36848
C -2.34742 -1.40413 -2.88214
C -3.31812 -.44532 -2.57955
C -2.48993 -2.66240 -2.24851
C -1.70164 3.47996 1.68949
C -2.14135 2.32756 2.46436
C -2.44079 3.84026 .54562
C -3.34546 1.71917 2.11211
C -3.56202 .30318 2.33374
C -2.65565 -1.87673 2.70276
C -2.59186 -.49628 2.96411
C -1.33072 .10577 3.40321
C -1.16254 1.52850 3.22300
C .11364 2.06845 3.39327
C -4.17218 -1.52307 .79915
C -4.36087 -.20430 1.27116
C -3.43347 -2.39230 1.63669
C -1.74669 4.23425 -.67205
C .55726 3.25295 2.65973
C -.30056 3.89870 1.75142
C .30167 4.50221 .62116
C -.42465 4.55650 -.63560
C 1.94465 3.13567 2.41768
C 2.50561 3.52813 1.17146
C 1.66864 4.26909 .30947
C 1.76603 4.11696 -1.14041
C 2.71941 3.29768 -1.68117
C 2.40268 1.94173 3.10622
C 3.44895 1.21921 2.60537
C 4.03750 1.57904 1.32310
C 3.56810 2.69808 .58722
C 3.68111 2.62088 -.81835
C 3.42904 -.22250 2.70606
C 2.17988 -2.25058 2.92268
C 2.32517 -.90785 3.28149
C -1.49102 -2.71555 2.87445
C -.27489 -2.17586 3.32203
C -.17739 -.73543 3.60635
C 1.13559 -.14470 3.67840
C 1.23805 1.25564 3.64661
C .88729 -2.90273 2.98523
C .44457 4.12135 -1.69543
C 2.13045 -3.88949 1.29954
C 2.92797 -2.82318 1.85722
C 3.75056 -2.00855 1.04290
C 4.07290 -.73746 1.55715
C 2.17005 -4.12356 -.05003
C -1.53715 -3.75635 1.91003
C -.34643 -4.26818 1.34789
C .85892 -3.92588 2.00598
C -1.46607 -4.22311 -.85539
C -2.70413 -3.78172 -.23536
C -2.74221 -3.56287 1.11896
C .93241 -4.42316 -.76339
C -.30761 -4.51902 -.09279
C 2.50324 -2.11826 -2.96458
C 2.33840 -3.22427 -2.16951
C 1.02446 -3.82805 -2.05014
C -.10628 -3.22454 -2.64931
C -1.35351 -3.55013 -2.09388
C 3.74678 -2.20994 -.40713
C 3.99877 -1.07603 -1.29210
C 3.42687 -1.09871 -2.57876
C 3.00523 -3.29811 -.90432
