92

 C     1.8848410299     -2.385534307     3.0367659805
C     3.0520374023     -2.1911646778     2.2915172866
C     3.7061409191     -0.9353874273     2.4858589887
C     4.5973774289     -0.4025963789     1.4935084015
C     4.7623703499     -1.0919802001     0.3052764488
C     2.0518468211     -3.7163636662     0.542851635
C     3.1820723448     -2.9058075913     1.0253915747
C     4.0790811049     -2.3493758615     0.0801675457
C     1.9072156023     -3.8898256455     -0.8477672477
C     2.7318318818     -3.158685225     -1.770566095
C     3.7794546925     -2.3993409063     -1.3210485942
C     0.8464642706     -3.8921316959     1.3445508366
C     -0.4573420117     -4.1371349055     0.7090261947
C     0.8535607774     -3.305685018     2.6337793098
C     -1.6280213542     -3.8424710872     1.4409811702
C     4.5384763172     1.7452572222     0.3013141454
C     4.6587549217     1.0172061701     -0.9573747112
C     4.4624671031     1.0407226581     1.4910680251
C     4.7691504475     -0.3560775294     -0.9530834453
C     4.0430273925     -1.1186011182     -1.928813167
C     2.2555147991     3.5088267219     -1.7786136514
C     3.6951851729     2.8775292767     0.0929046009
C     3.3890371977     2.9011873325     -1.3270982158
C     1.9212058039     -2.6814047769     -2.8546605388
C     1.981163935     -1.3309562762     -3.2790055765
C     3.0907441533     -0.5172369718     -2.8005867515
C     2.9529416258     0.9303698363     -2.7904731812
C     3.8179122611     1.664701941     -1.9269000271
C     1.4377238957     2.872094273     -2.7784496374
C     1.6869007934     1.5518997175     -3.2021119174
C     1.4049636403     4.2185827042     -0.8646056669
C     1.5901163651     4.0598601166     0.539217434
C     2.7110074146     3.2714399734     1.0346787139
C     2.5384966215     2.4431798804     2.2365955829
C     3.4435702676     1.3864571494     2.4433838386
C     0.4221380227     4.1342693084     1.3337041144
C     0.0975097284     4.2484592104     -1.4409059922
C     -2.2550356478     3.7879082129     -1.1519978527
C     -1.0564039152     4.3531400033     -0.6356478021
C     -0.8650513155     4.3541119375     0.7796274392
C     -1.7329759488     -0.9706032833     -3.7052648412
C     -1.9670037953     0.3920595266     -3.4976942551
C     -0.8123856804     1.2814162634     -3.5013216762
C     -1.0100131162     2.6215161679     -2.9674903124
C     0.1124699873     3.3795786155     -2.6032763511
C     -2.2307565467     2.9617672645     -2.3086847866
C     -0.419792438     -1.5002811287     -3.823665558
C     0.536277212     0.7399453077     -3.6009875951
C     0.7325601413     -0.6914029087     -3.7194574017
C     0.2584607103     3.281274317     2.5000260537
C     1.2247235796     2.3535077008     2.8844571799
C     0.7711183909     1.111527762     3.5424407357
C     1.7247174742     0.0257470979     3.6306235807
C     3.0241024581     0.1669643181     3.0937799639
C     1.2565688512     -1.3002110182     3.7520881607
C     -1.1373903414     3.0430060371     2.6851826439
C     -2.9212617352     1.4391333601     2.8954358946
C     -1.6080022796     1.8239177452     3.2421333468
C     -0.6347605562     0.8230663201     3.6763709135
C     -1.0942777373     -0.563318694     3.8161381844
C     -0.1297689032     -1.5796229405     3.8733314627
C     -3.2870185208     3.2768039701     -0.2751607749
C     -3.0607106391     3.1935329617     1.1287356493
C     -1.8394275887     3.7110874595     1.6364324205
C     -3.6396916233     2.0949988109     1.8384994988
C     -3.3282239931     0.0573454745     2.9193989268
C     -2.442670549     -0.9545387014     3.3650276134
C     -2.6535850991     -2.2483328947     2.8277425197
C     -1.5633440309     -3.1804103404     2.7095033451
C     -0.3511348441     -2.8837942407     3.2710962114
C     -4.2552438851     -0.1554437896     1.8669145831
C     -4.5332482577     -1.3865815359     -0.2265635712
C     -4.301717488     -1.4034881352     1.1762966969
C     -3.5082505916     -2.4574848639     1.6917498197
C     -3.9878218635     2.2322154066     -0.9555633328
C     -4.6237876655     -0.1131256895     -0.9372620792
C     -4.5575346119     1.1349254705     -0.2434085568
C     -4.4235367203     1.1060927121     1.1689183522
C     -2.5644104444     -1.9992928051     -3.0712288699
C     -3.6523989429     -1.6533650657     -2.3272431237
C     -4.0324142028     -0.2714870662     -2.2178156818
C     -3.2173282635     0.757544602     -2.7974767165
C     -3.316290729     2.0213413985     -2.2085289362
C     0.6788675468     -3.3871424826     -2.7433225071
C     -1.7196972637     -3.0977280866     -2.6801834675
C     -0.4550186545     -2.8479531838     -3.2824965854
C     -2.8547340536     -3.4055819177     0.8154616049
C     -3.906554023     -2.3351709305     -1.0772208498
C     -2.977216251     -3.3115192051     -0.5855028738
C     -1.8248785647     -3.6946306739     -1.393422237
C     -0.5847425683     -4.1413252886     -0.7457191611
C     0.6152763987     -4.0647515797     -1.4746024557


