92

 C     -0.2806869926     2.7006233124     -3.2964552395
C     -1.3866004231     3.1381455514     -2.5533532654
C     -2.5869575005     2.3913063467     -2.7581703369
C     -3.5863360148     2.3113926124     -1.7247720593
C     -3.4054003036     3.0103273975     -0.5652644105
C     1.0535945766     3.0036140846     -2.8992905338
C     1.3462977236     3.611814114     -1.6540363277
C     0.2180512304     4.0106519257     -0.8055276412
C     -1.1372664924     3.8245452598     -1.290566194
C     -2.2088956642     3.8125491744     -0.3482489021
C     1.7359817155     3.8970272645     1.140273181
C     0.4330748093     4.143348503     0.6312822089
C     2.8222772962     3.4584549322     0.3107738799
C     2.6591198989     3.3192934261     -1.0810729762
C     3.5292233058     2.3693674298     -1.713688269
C     -4.0426738834     0.3734867632     1.9359787508
C     -4.3044822373     1.0756876717     0.7435183127
C     -3.8328790478     2.4346922356     0.683490689
C     -2.9830691895     2.9759707763     1.682706791
C     -1.3829583271     2.4488790069     3.4157747365
C     -2.6487500554     2.2236577753     2.8391181466
C     -3.2089203886     0.9253823781     2.9676630234
C     -0.6786585361     3.9836142157     1.5677340583
C     -1.9837926068     3.8303891804     1.0418046675
C     -0.4472397109     3.398247011     2.8479649334
C     -4.4491744159     0.3024644656     -0.5027625286
C     -4.1723087944     0.9770681998     -1.7114591075
C     -3.8725514369     -1.062745123     1.9477033997
C     -4.0153380614     -1.8454349853     0.7799059884
C     -4.3025389261     -1.159722028     -0.4861088562
C     -3.3204928391     -3.0815308029     0.7823692717
C     -2.8918633399     -1.3732143793     2.9342448503
C     -2.0274478211     -2.4827714843     2.8264616334
C     -2.3596685369     -3.4078555897     1.7991341024
C     -0.0594945923     -4.2002477561     1.7141632666
C     -1.3368941912     -4.2303048554     1.2002026151
C     -0.6313203734     1.3664679711     3.9856557444
C     -1.0972512537     0.0281171648     3.9335793787
C     -2.446597893     -0.1466689341     3.5323511745
C     -0.1271482769     -1.0489955048     3.7520202708
C     -0.6371520681     -2.3489287369     3.2783454174
C     0.2835767065     -3.2830608526     2.7856210245
C     -2.8164980712     -3.6452832688     -0.4498453524
C     -3.0487268662     -2.9987483377     -1.6318458987
C     -3.8629279701     -1.8014139787     -1.6682009437
C     -3.4180226744     -1.0580642192     -2.8088350092
C     -3.605053733     0.3036810378     -2.8395149679
C     -1.5441287342     -4.2803440831     -0.2173647259
C     -1.9790185873     -2.8685504885     -2.5972219429
C     -0.6737387029     -3.3500397766     -2.3404934091
C     -0.4575738374     -4.1391919183     -1.1219297103
C     1.9594049134     -3.69879139     -1.3188496342
C     0.8806018264     -4.2469604829     -0.5687569825
C     1.0586616101     -4.3181227476     0.840540781
C     -0.2847944602     1.4240209273     -3.9810467225
C     -2.5870849599     1.1376783604     -3.4356632856
C     -1.3877955672     0.5594132352     -3.9398775239
C     -2.2028905528     -1.6662810578     -3.3237739874
C     1.7325647682     -2.9248562671     -2.487108723
C     0.4242716202     -2.6356992729     -2.9660378792
C     0.2134195608     -1.3802196876     -3.6697279646
C     -1.1355433797     -0.874161893     -3.8146461799
C     1.3346348699     -0.4440057353     -3.8112249727
C     1.0423469903     0.9170847611     -3.9991775149
C     2.8353700724     -2.0030486006     -2.6358683265
C     2.6603253913     -0.7614641071     -3.2579541256
C     3.536211361     0.294327877     -2.8442221486
C     3.0995105425     1.6643954255     -2.899508295
C     1.8956121267     1.9721516653     -3.4513821417
C     3.7162772831     -2.1727628489     -1.5169301082
C     4.5347820687     -0.9881542117     0.4631669873
C     4.4045824593     -1.0580358976     -0.9516020801
C     4.3285340055     0.1757876279     -1.6705563942
C     2.1659149255     -3.6373319632     1.4761681395
C     3.9180405789     -1.975913827     1.294517158
C     3.2353109127     -3.0950363409     0.7270020668
C     3.1571852144     -3.1987032604     -0.6866517711
C     0.7594530809     1.669641339     3.8614780746
C     1.7140518362     0.6756688494     3.6394561029
C     1.2727989894     -0.7273429831     3.6288830469
C     3.3973560203     -1.3100634543     2.4517692566
C     2.1870917832     -1.7155500141     3.0585486586
C     1.6702397084     -2.9717538417     2.6441497006
C     3.0361107497     2.3723173203     2.3500115826
C     1.9290271137     3.2841941381     2.4216109062
C     0.8511200569     2.9747709269     3.2202805008
C     3.7648032078     0.0814139679     2.3634264933
C     2.9532146156     1.084400527     2.9404660237
C     4.3366322922     1.4635405988     -0.9774813952
C     4.484225845     0.2829295589     1.153245388
C     4.3704604409     1.5130188427     0.4427341684
C     3.6662321867     2.5649238519     1.0710402121


