92

 C     2.6722850927     2.6335615874     -2.2933625458
C     3.448458934     1.4708254511     -2.2222504899
C     4.415044831     1.415193361     -1.1694371853
C     4.9287719866     0.1574628263     -0.7309753952
C     4.5751856335     -0.9946407057     -1.408136551
C     3.5300341948     -0.9584501972     -2.4220730763
C     2.8733118997     0.2352164992     -2.7568442658
C     1.4007196529     2.6265972567     -2.9046600247
C     0.7268921832     1.4089981766     -3.2589201272
C     2.7306087503     -3.9637759     -0.7148947969
C     4.4577112729     -2.2419009971     -0.6952662029
C     3.4817619641     -3.0390967747     -1.3982182889
C     1.4496041018     -2.2945712356     -2.6710644474
C     2.8369256063     -2.2068278198     -2.4005262056
C     1.3989958773     -4.2456134615     -1.1518634202
C     -2.8269790718     -2.2051800558     -2.4026643004
C     -1.4395049332     -2.2937307603     -2.6721549951
C     -0.7199862483     -3.4296493933     -2.1069100051
C     0.7289980166     -3.4300710691     -2.1063624626
C     -1.3875810948     2.627408093     -2.9057119265
C     -0.7141941788     1.4094173306     -3.2594640472
C     1.4625352056     0.1703972596     -3.1499237449
C     -2.8616754553     0.2368853209     -2.7590086977
C     -1.4506397172     0.1712448167     -3.1510228603
C     -0.72455219     -1.08327776     -3.0751228677
C     0.7356601384     -1.0837026645     -3.0745718201
C     -3.519344613     -0.9563990427     -2.424734068
C     2.7300600043     -3.9567781233     0.7450903576
C     3.4806976988     -3.0255748803     1.4200817728
C     4.457190438     -2.2351550626     0.7102523343
C     4.574124228     -0.9811077995     1.4111973465
C     4.9282424741     0.1644629693     0.7232491664
C     -0.6745382025     -4.6741926058     0.0172312089
C     0.6812219894     -4.6745876029     0.017743216
C     1.3981214334     -4.2344128326     1.183729135
C     -1.3911792793     -4.244801831     -1.1529169146
C     2.6705260844     2.6554395163     2.2599542198
C     4.4141994168     1.4263165717     1.1491957493
C     3.4467858597     1.4920592056     2.2006216332
C     1.4475946947     -2.2688681558     2.6841531887
C     2.835103401     -2.183726963     2.4138482569
C     3.5282193274     -0.9351683678     2.4239015427
C     -2.8287776339     -2.1820797012     2.4117101995
C     -1.4415227487     -2.2680280366     2.6830626279
C     -0.7268409611     -1.0537392361     3.0749108549
C     0.7333237762     -1.0541636778     3.0754622299
C     1.4601557192     0.2006232977     3.1392853954
C     2.8712376625     0.2616634736     2.7466606172
C     -1.4529906839     0.2014705889     3.138185549
C     0.724439786     1.440183786     3.2357951245
C     1.3985608929     2.6543451499     2.8702954741
C     0.7274057325     -3.4097382642     2.1298415252
C     -1.3920610693     -4.2336006572     1.1826754802
C     -0.7215797661     -3.4093166869     2.1292948826
C     2.6805531944     3.6577107717     1.1874734549
C     3.3618486575     3.3551996286     -0.0198760435
C     4.2559449392     2.2592225351     -0.0142575596
C     2.6814854997     3.646052289     -1.2306015429
C     -0.6732124056     3.7689693737     2.3106625974
C     0.6830779139     3.7685752178     2.3111750947
C     1.4296129483     4.3162602512     1.1839817791
C     0.7456540378     4.6362140542     -0.0270572061
C     1.430502124     4.3046175007     -1.2344067947
C     -3.5211740395     -0.9331182391     2.4212410086
C     -2.8637400292     0.2633312166     2.7444961863
C     -0.7166263958     1.4406027886     3.2352511558
C     -1.3897652789     2.6551556266     2.8692426403
C     -1.4185774461     4.3170886754     1.1829071626
C     -0.7335190422     4.6366443901     -0.0276152628
C     -1.4176482523     4.3054466863     -1.2354819762
C     -0.6714724647     3.7465427675     -2.3573797653
C     0.6848487219     3.7461485232     -2.356868656
C     -2.6699032233     3.6592668993     1.1854543979
C     -4.2452006275     2.2616951283     -0.0174655717
C     -3.3504631065     3.3571522318     -0.0224090925
C     -2.6690170208     3.6476092786     -1.2326207298
C     -4.5663418466     -0.9784492139     1.4077477072
C     -4.9192734364     0.1673271949     0.7195323525
C     -4.4048187826     1.4288820104     1.1458677471
C     -3.4381607413     1.4940617212     2.1980235608
C     -2.6612690221     2.6569900174     2.2579424811
C     -2.7235065926     -3.9551918801     0.7430320071
C     -4.4496079932     -2.23256391     0.7068900267
C     -3.4741108709     -3.023551436     1.4174564191
C     -4.9187095192     0.1603275184     -0.7346921164
C     -4.5652825324     -0.9919818575     -1.4115869944
C     -4.4490716989     -2.2393095035     -0.6986281987
C     -3.4730556472     -3.0370731947     -1.4008437596
C     -2.7229572119     -3.962189586     -0.7169539574
C     -2.6596037529     2.6351132129     -2.2953754629
C     -4.4039202033     1.4177586031     -1.1727656507
C     -3.4365069667     1.4728284917     -2.2248487932


