92

 C     3.449672977     -3.1049794723     0.740870628
C     4.0018265258     -2.0146852251     1.4639710685
C     4.6809795114     -0.9990987256     0.7195040734
C     3.3316016072     -1.6425377341     2.6644318621
C     2.0938192569     -2.2492902022     3.0301616726
C     1.510227267     -3.2949975505     2.2886725131
C     2.2836813148     -3.7777438471     1.1871061617
C     3.2793313958     -0.2580885214     3.0757216239
C     3.9380625187     0.748099429     2.3263545642
C     4.6695701765     0.3641663215     1.1611545694
C     3.3569295047     2.0533768088     2.3476280452
C     1.9951183376     -0.0174054619     3.6678120995
C     -2.2128479355     0.0148192517     3.432621816
C     -0.8333275024     0.0220272689     3.6439640734
C     -0.1226847623     1.2822561132     3.5080474445
C     1.3370988274     1.245582194     3.5493629111
C     2.0874030688     2.2936178826     2.9965313041
C     -2.1937269615     -2.3180374978     2.5907816759
C     -0.1428066677     -1.2612916568     3.5454158623
C     1.262531306     -1.2357078309     3.6291584699
C     -2.906626101     -1.159055267     2.9726316227
C     -1.8384028626     -3.8680976051     0.7319440936
C     -0.5179433263     -4.109290772     1.1822111534
C     0.0538171391     -3.4034084595     2.2662301889
C     -3.8527502156     -2.5786968228     0.7346201099
C     -2.7332097744     -3.0658673578     1.46018331
C     -0.7854972387     -2.4061244949     2.9309077424
C     3.4374107472     2.9187591311     1.2249878832
C     4.0372118163     2.4730212102     -0.0012796358
C     4.6928353441     1.2148767448     -0.0008790317
C     3.4358740101     2.9171777955     -1.2273684044
C     2.2559541719     3.7542623795     1.2183512541
C     0.2765353303     4.4308852757     -0.000185512
C     1.6654164195     4.1893273271     -0.0009001413
C     2.2544256693     3.7526896727     -1.2203285324
C     0.0115577999     3.4456130681     2.2654824179
C     1.4295207123     3.3643554294     2.3116268114
C     -3.8646207445     2.5704496849     0.7262567352
C     -2.7549228418     3.0766819507     1.4523957948
C     -1.8709243717     3.8833720844     0.7146207356
C     -0.5303488626     4.1328987639     1.1543627395
C     -0.7963464731     2.4163013454     2.9214122959
C     -2.9140693575     1.1725593311     2.9693158997
C     -2.2134627386     2.327653968     2.5888086301
C     3.3539865096     2.0503483007     -2.3487896916
C     3.9351466123     0.7450988406     -2.3265609108
C     4.668114229     0.3626682679     -1.1617842546
C     3.2754779846     -0.2620541784     -3.073803697
C     -0.5317953043     4.1314113061     -1.153336506
C     0.0087188432     3.4426926312     -2.2642473062
C     1.4266230684     3.3613740331     -2.3120636159
C     2.083647339     2.2897532624     -2.9964104366
C     1.3326518202     1.241005974     -3.5469493829
C     1.9905235193     -0.0221340894     -3.6645936887
C     3.3282645389     -1.645971629     -2.6607939241
C     3.9999942201     -2.0165712304     -1.4606953212
C     4.6800788982     -1.0000260412     -0.7183906412
C     3.4487478049     -3.1059314907     -0.7354976892
C     2.0900253987     -2.2531944621     -3.0241890155
C     1.5073639285     -3.2979441843     -2.2806211777
C     2.2821981969     -3.7792697327     -1.1794032957
C     0.2705941244     -4.4418281875     0.0055402613
C     1.6145210809     -4.2729885178     0.0045892278
C     -0.5194176708     -4.1108080921     -1.1705693974
C     0.0509832187     -3.4063245772     -2.2562134073
C     -0.8000055155     2.4125348129     -2.9178337636
C     -0.1270785741     1.2777336422     -3.5038500664
C     -0.7891642993     -2.4098979346     -2.9211240433
C     1.2579864704     -1.2403848641     -3.6234512406
C     -0.8378904033     0.0173314806     -3.637252802
C     -0.1472454766     -1.2658599586     -3.5379151626
C     -2.2167039306     2.3243181712     -2.5833410864
C     -2.917785891     1.168734635     -2.9614801708
C     -2.2171451434     0.0103973977     -3.4241719912
C     -2.9103449039     -1.1628822261     -2.9617980115
C     -2.1969665011     -2.32137122     -2.5793469626
C     -4.5769773817     1.4011894386     -1.1624186525
C     -3.8655265042     2.5695177779     -0.7190363155
C     -2.7567399658     3.0748119419     -1.4472180084
C     -1.8718179532     3.8824519472     -0.711592488
C     -4.1125624267     0.7141866545     -2.2745812513
C     -4.1097054629     0.7171266159     2.2845017302
C     -5.0466399963     0.6747096775     0.0055729231
C     -4.5755144438     1.4026947387     1.1720369765
C     -4.0996834622     -0.7304187797     -2.2751070158
C     -4.5761045835     -1.4322125075     -1.1636251782
C     -5.048577328     -0.7100523938     0.0064671154
C     -4.5746380532     -1.4307032312     1.1768968088
C     -4.0968247206     -0.7274769264     2.2868747289
C     -2.735031613     -3.0677422053     -1.4471102415
C     -1.8393121031     -3.8690334587     -0.7189591332
C     -3.8536622124     -2.5796353564     -0.7207734265


