92

 C     4.4849839231     -0.4325787118     -0.6037599023
C     4.2135827095     -1.81549711     -0.4519036825
C     3.8765800215     2.3785963354     -0.8720145875
C     3.7739406936     1.5376639549     -1.95967445
C     4.0964493014     0.1361288452     -1.8436091351
C     2.9550283123     3.4527152496     -0.7119774787
C     2.6732959217     1.6891544951     -2.8695919762
C     1.7044385096     2.6957133079     -2.7044239744
C     1.8508586936     3.6320829877     -1.5922613734
C     -0.5555534305     4.1160621285     -1.7327899377
C     0.6685263748     4.2920545199     -1.0527915559
C     0.5793297021     4.5570163446     0.3542914531
C     3.251305424     -0.5704518006     -2.7582002655
C     2.8652275121     -1.9089107813     -2.5412850627
C     3.4752845547     -2.5472126008     -1.4186705425
C     2.7789120613     -3.6106336411     -0.721428941
C     1.6201527573     -4.1115633294     -1.2446707792
C     2.3582995509     0.3690724232     -3.376437885
C     1.0602112865     0.0063289192     -3.7540283411
C     0.6453153781     -1.3938136933     -3.6097122456
C     1.5566848263     -2.3415494957     -3.0141107495
C     1.021576375     -3.5332706141     -2.4269302068
C     -1.6808964597     -0.649250309     -3.8595918435
C     -0.7785032251     -1.703276824     -3.6217342986
C     -0.6678111838     3.2503690895     -2.8907342027
C     0.3978641138     2.4266218732     -3.2907450365
C     0.0897992138     1.093323213     -3.8385794729
C     -1.2557256586     0.7257755065     -3.9735913013
C     -0.5499303136     -4.1153591912     1.7395747336
C     0.6711830141     -4.2918677258     1.0543962749
C     0.5759111801     -4.5567907129     -0.3522941803
C     -0.6500955378     -4.4312096506     -1.0536075895
C     -2.856135225     -3.4131212651     -1.0277334695
C     -1.8628807449     -4.1819399092     -0.3637929762
C     -1.809785587     -4.0953296676     1.0502586457
C     -1.2992629217     -2.8786431978     -2.9167387414
C     -0.3668373691     -3.760557595     -2.3199178372
C     -2.5939232785     -2.8389833836     -2.3343232679
C     1.8560696827     -3.6323962654     1.5888503006
C     2.9565693251     -3.4534919476     0.7038978067
C     3.8792467507     -2.3797638769     0.8600273556
C     1.7147567113     -2.6959662256     2.7016263913
C     2.6847279736     -1.6898170047     2.862685806
C     3.7815692846     -1.5387884194     1.9481089245
C     -2.0096673028     -2.7839066402     2.9454146714
C     -0.6569185889     -3.2496221524     2.8979852688
C     0.4107937755     -2.4263240675     3.2934784374
C     -2.3056161341     -1.5589644081     3.4938073776
C     -1.2391756557     -0.7247868826     3.9833198533
C     0.105615159     -1.0929008354     3.8426082073
C     -3.706979542     -2.5185819029     -0.31703708
C     -3.5975995621     -2.3437683825     1.0897200502
C     -2.7018915665     -3.2159600132     1.7643642333
C     4.2162341843     1.8141882334     0.4384888604
C     4.4876916647     0.4311580168     0.5891947083
C     4.1041744135     -0.137388625     1.8306804466
C     3.2632126256     0.5695453528     2.7488428258
C     2.8767818258     1.908166957     2.5335640776
C     3.482347965     2.5462154368     1.4083757165
C     1.6271568135     4.1113485597     1.2422366587
C     2.7834738933     3.6099287962     0.7140896511
C     1.0761150037     -0.0063143782     3.7539465163
C     2.372438442     -0.3696047612     3.3708590031
C     -1.6642445285     0.6504200468     3.871120893
C     -0.7624236539     1.704065498     3.6294447037
C     0.6612015595     1.3940025328     3.6113883273
C     1.5704372931     2.341355597     3.0119307759
C     1.0333501199     3.5333040943     2.4270214377
C     -2.9670917251     0.6331752485     3.2614850233
C     -3.3931710355     1.6790998248     2.4724425242
C     -2.5828027065     2.8405377078     2.3497344285
C     -1.2856696258     2.8796530505     2.9266613015
C     -0.3554094998     3.7611749504     2.3258937222
C     -4.2106940446     0.0998016472     0.7374289441
C     -3.8830527566     -1.0213999325     1.6422927161
C     -3.3076244441     -0.7149957434     2.8976928078
C     -4.0328744154     1.4111173394     1.2087225819
C     -3.319561218     0.7168579209     -2.8792074039
C     -2.9811403581     -0.6314566308     -3.2444351771
C     -3.4043179383     -1.6772057598     -2.4536002795
C     -3.8895395502     1.0235045134     -1.6213774679
C     -4.2138117216     -0.0975631893     -0.7151379655
C     -4.0385421825     -1.4089530891     -1.1871789357
C     -2.7079783321     3.2175647535     -1.7484590332
C     -2.020950362     2.7852206741     -2.9324276105
C     -2.3197372634     1.5604047628     -3.4795627926
C     -3.7045353739     2.5206107321     0.3371829166
C     -3.6011930259     2.3457452345     -1.0700227729
C     -0.6437463569     4.4319458647     1.0607937498
C     -2.850307185     3.4147914937     1.044268441
C     -1.8595504872     4.1831894525     0.3761237744
C     -1.8124867992     4.0965588577     -1.0381395156


