92

 C     -2.4588605311     3.371112546     -1.3190440474
C     -3.0632462114     2.3532373575     -2.0818927228
C     -4.2175672774     1.7480123103     -1.5101017193
C     -4.628074482     0.4124968492     -1.894218432
C     -3.839112569     -0.2948576751     -2.7944875801
C     -1.0554530255     3.7175113111     -1.4995119586
C     -0.2290784614     3.0181320913     -2.4091503535
C     -0.7993488239     1.8926946985     -3.1207294031
C     -2.2165547399     1.5897868778     -2.9963692192
C     -2.6370810826     0.2946585146     -3.3366332757
C     1.4738184359     1.0899156197     -3.5154308141
C     0.0988715397     0.84578104     -3.5418489544
C     3.0565844235     3.3441568303     -0.5903601854
C     1.7305593531     3.6833326356     -0.9696466755
C     1.2003798406     3.14403741     -2.2143877463
C     2.0300843948     2.2743460447     -2.9576470961
C     -4.9378959837     -1.6130987667     -0.5354639822
C     -4.1294410598     -2.3451542316     -1.4864556901
C     -5.190840856     -0.2484853856     -0.7430528916
C     -3.5899002867     -1.7053210398     -2.5922698485
C     -1.1152962109     -4.1303318795     -0.278909329
C     -3.28685474     -3.2776696948     -0.7722321384
C     -1.9921422224     -3.6239533104     -1.246064905
C     -0.3078094711     -0.5426362239     -3.5488692043
C     -1.6820697689     -0.7751093723     -3.5240512033
C     -2.229269731     -1.9839788794     -3.0192611175
C     0.0569048058     -2.7529085796     -2.4707035662
C     -1.3921208249     -2.9198656864     -2.3760395736
C     0.6001041852     -1.5978129402     -3.1280611413
C     -4.7386003511     0.2262394277     1.6202869674
C     -4.4153584752     -1.1665414937     1.8233663138
C     -5.1065882899     0.6800502522     0.3593051866
C     -4.5406999201     -2.0670864744     0.7725948778
C     -3.5297296898     -3.0866441613     0.6294699128
C     -2.4651845478     -3.1992355297     1.5641566713
C     -1.3451531046     -3.9005542709     1.1095904339
C     -2.2014059283     2.7482670885     2.6378255385
C     -3.4160261999     2.3063156241     2.0512737102
C     -3.8513174891     1.0216269514     2.4473770027
C     -2.2524343535     -2.1789187402     2.5914995875
C     -3.2709786017     -1.2221632825     2.7142767218
C     -2.9633943278     0.1168582589     3.1212276025
C     -0.8838196625     -1.8430939349     3.028421102
C     -1.6432439029     0.4798833682     3.4725392606
C     -1.3473528667     1.8563199082     3.3376768415
C     -3.7558996377     2.7724876229     0.6997210487
C     -4.5431925958     1.9380666031     -0.1282909568
C     -1.3287277992     3.7038409696     1.9727893579
C     -1.618476171     4.0990209524     0.689929542
C     -2.8164872703     3.608591221     0.0322458586
C     0.0380567477     3.4354900832     2.3363586632
C     -0.5465885334     4.2123964525     -0.2757330645
C     0.8181076954     4.0382437659     0.0832807435
C     1.1217596919     3.6545644529     1.4445208973
C     3.416148055     0.956202446     2.6806611487
C     2.3454854278     1.8615817275     2.6981276001
C     2.3482939199     2.9723294084     1.7471593713
C     3.3724176753     3.021802126     0.7688030498
C     1.8955115544     -0.953466554     3.2169287423
C     1.0911914498     1.3875361093     3.2490830545
C     0.0169688395     2.2914757236     3.1730830009
C     3.2012213514     -0.4303453304     2.9596751065
C     0.8188051973     -0.0272754622     3.4331464756
C     -0.0701651172     -3.7836982726     1.7583565674
C     0.2101310395     -2.7344181102     2.6644125868
C     -0.5729494093     -0.5022731538     3.4400001188
C     1.5994979048     -2.3179972166     2.8086588069
C     2.5986079686     -3.0161846796     2.0745802653
C     4.9571645747     -0.244508192     1.3977312373
C     4.5099787811     1.0828714252     1.7376626062
C     4.466825458     2.0776565712     0.7715686028
C     5.2507598814     -0.5567735066     0.0654453618
C     4.1181026292     -2.7238359469     0.3148828695
C     3.8530020224     -2.4122466579     1.7105026027
C     4.1879000927     -1.1707929186     2.2081039488
C     4.7299788611     -1.79371559     -0.4968241379
C     0.9106533069     -4.2006672808     0.8080597178
C     3.0000845447     -3.4813225456     -0.1818304973
C     2.2160518358     -3.8398936799     0.9655455954
C     3.6525473337     0.5984695929     -2.9011363661
C     2.433671228     0.0162512175     -3.3896896627
C     2.0258209891     -1.2878392471     -3.0337130372
C     4.5064996749     -0.1492353855     -2.1094680316
C     4.1643511471     -1.5114477281     -1.7960328105
C     2.9202401618     -2.0840903426     -2.2044838404
C     2.3461377361     -3.149409343     -1.4011433779
C     0.929613969     -3.4962917386     -1.5528089258
C     0.3040685187     -4.1825804605     -0.4947526525
C     4.8127991149     1.7723341074     -0.5988170468
C     3.9182438326     2.548892065     -1.4347243998
C     3.3888340595     1.9885740712     -2.5867699948
C     5.1444913538     0.4617891659     -0.9511487025


