92

 C     0.6940969596     -3.9137071834     -2.3626190755
C     -0.6647699428     -4.2098988476     -1.9564645201
C     1.7498707414     -4.1272956085     -1.4947470494
C     -0.9165193969     -4.6801041828     -0.6736197566
C     -2.0648867614     -4.2056016788     0.0387571805
C     -1.5244903492     -3.2129517552     -2.5255058253
C     -2.6738438633     -2.7444570218     -1.859201305
C     -2.9628098537     -3.2667282055     -0.5204011429
C     -4.3716628833     -1.2873402032     -0.0959334097
C     -3.7279002968     -2.4339253213     0.4039966915
C     -3.3683463992     -2.397227012     1.7809462118
C     2.8647969192     -2.0353604715     -2.2606966314
C     1.7192495319     -1.7798234696     -3.1289850473
C     2.83324142     -3.1892931026     -1.4423097358
C     0.6730045374     -2.7248291291     -3.1660038674
C     -0.6917352621     -2.3125437589     -3.3011785017
C     -1.0550496337     -0.9727197702     -3.5129032746
C     0.0042133494     0.0062871368     -3.6622340477
C     1.3809633536     -0.4213783257     -3.5058583801
C     2.3586020307     0.5634217979     -3.2904933728
C     -1.6572509498     1.7671066497     -3.3006072367
C     -0.3145439766     1.4125901706     -3.5090273046
C     -4.1853037893     -0.8538237966     -1.4597482643
C     -3.1989873038     -1.455191689     -2.2769411293
C     -2.4019629503     -0.587810602     -3.1394123878
C     -2.6971534265     0.7909002845     -3.1725471442
C     3.5509537502     0.2934171526     -2.5086484848
C     3.7167716356     -0.935453356     -1.8401786937
C     4.3069794948     -0.9230260706     -0.4984917845
C     3.9818115511     1.5370889828     -1.9390392285
C     4.5086180986     1.555613083     -0.6536074049
C     4.668460414     0.3246690454     0.0609731299
C     3.0478067624     2.5652954168     -2.3509167656
C     4.0820866292     2.5864524129     0.2847512949
C     3.2217995132     3.58529703     -0.1291210499
C     2.7006576671     3.5873790574     -1.4858579908
C     0.6909228029     2.3851286949     -3.1282524271
C     2.0326044073     1.9515809878     -3.1583954981
C     1.3464217191     4.0566379998     -1.4404652265
C     0.3352979201     3.506008091     -2.2630436514
C     3.9637596706     -2.0008608777     0.4255390514
C     3.2951797694     -3.1323048599     -0.0762631198
C     4.3872618246     0.6128012368     1.4572485547
C     3.8867017387     -0.3657520296     2.281418222
C     3.7455056157     -1.7061650598     1.8010898882
C     3.9022990505     1.9603666818     1.5759227204
C     2.7902465599     -0.0759323624     3.1650845052
C     2.177603257     1.1849887045     3.1874835104
C     2.7855170362     2.2669999829     2.39483141
C     1.959735879     3.3961770704     1.9995988442
C     0.6509368841     3.4780297405     2.521846243
C     2.1763601262     4.0339486083     0.7438453852
C     2.6659944578     -2.3118269555     2.5224537392
C     1.9425408581     -3.4024079595     1.9937909792
C     2.3910555895     -3.9045458823     0.7379037244
C     1.4828446692     -4.582557017     -0.1405740499
C     0.1862507479     -4.8296986372     0.2680283026
C     -0.0853706844     -2.4898667817     3.1782039755
C     0.5504421895     -3.5544421844     2.3838267932
C     -0.2705828919     -4.3655252163     1.559331655
C     -1.4835659871     -2.3899450481     3.1514278179
C     -2.2796709112     -3.1913456741     2.2620354634
C     -1.679695627     -4.1113001765     1.4367317683
C     2.0364501013     -1.2889002634     3.3162679715
C     0.0759260211     2.4222306689     3.3140787361
C     0.7667450759     1.2180441758     3.5499669392
C     -0.0161572291     0.0004146976     3.6989652715
C     0.6474246102     -1.2859162812     3.5475937663
C     -1.4614208451     0.0694218581     3.5429242845
C     -2.1576772342     -1.1312078185     3.3049175463
C     -1.6435959608     3.5617775339     2.2694544981
C     -1.3507105834     2.468401961     3.155936895
C     -2.1364590504     1.3073661199     3.175698772
C     -2.737303876     3.5049407266     1.4400043986
C     -3.6625635145     2.4114061542     1.5555013263
C     -3.3736377221     1.2918623708     2.3770541397
C     1.0594864463     4.4298579944     -0.0762456317
C     -0.2570600636     4.443716339     0.419184887
C     -0.4098125142     4.1090739473     1.7944069509
C     -3.3185791638     2.687651536     -1.9582391047
C     -2.0232742194     2.9355919795     -2.521770663
C     -1.0452181159     3.6943416993     -1.8494114275
C     -3.6042086187     3.1360384272     -0.6746624418
C     -2.6215985957     3.8907605244     0.0438322028
C     -1.3576296237     4.2009132255     -0.5098610015
C     -4.7211563861     1.0075264363     -0.1531959085
C     -4.4558525572     0.5535613975     -1.5081585132
C     -3.7401144827     1.3642190567     -2.3707301952
C     -4.2883571468     2.2524795799     0.2614163526
C     -3.3555854369     -1.1620864316     2.5068259507
C     -3.936616069     0.011632746     1.980433689
C     -4.5912472375     -0.1211790965     0.7216970328


