92

 C     3.9210246428     -1.0118628719     -1.686319144
C     3.2100275705     -0.2807274569     -2.7406197774
C     4.5675260537     -0.2594298613     -0.6740576378
C     3.2499247978     1.1252102215     -2.7261605432
C     0.9817439874     -0.0636107658     -3.9536307021
C     2.0889532015     -0.8945457368     -3.446739729
C     1.8282904804     -2.2520672261     -3.1880921911
C     -0.2611996787     -0.665567928     -4.1947333673
C     -0.4981257696     -2.0409646558     -3.8641396985
C     0.5193508906     -2.8040120335     -3.3404845904
C     0.9681923457     1.3726173916     -3.7252849864
C     -0.3042333876     2.0825884413     -3.5152251489
C     2.1471521783     1.9376901102     -3.2179360449
C     -0.2858170003     3.293024615     -2.803347505
C     4.5856388297     -0.7097804141     0.7013474951
C     2.4603717507     -2.956198961     -2.0912612736
C     3.4943837163     -2.3628606052     -1.3352068288
C     3.6284238827     -2.8324758069     0.0013700535
C     4.1284654038     -1.9588053119     1.0351963478
C     1.4921883509     -3.8285526417     -1.5074345852
C     1.4968741406     -4.123662696     -0.1264550748
C     2.640718538     -3.6865442582     0.5934439092
C     -1.0452977073     -4.107519773     -0.2061054148
C     0.2110656772     -4.280252286     0.5521101486
C     -2.2144672778     -3.8008681625     0.5068988607
C     -1.0095925828     -3.7543208794     -1.6308685338
C     -2.1180272533     -2.9919326825     -2.2387876198
C     0.2529773028     -3.6961286784     -2.2449875303
C     -1.8355931636     -2.1959243391     -3.3715278172
C     1.3248583343     -3.4461346616     2.6237149747
C     3.3513425906     -2.1665904546     2.2399677138
C     2.5289891246     -3.3105663247     1.9844319039
C     -0.9765928951     -3.5131522922     2.5925108253
C     0.1905503342     -4.0288224147     1.942846448
C     -2.1771744332     -3.4778822994     1.907795274
C     0.8485130763     -2.3904035322     3.4807476269
C     1.5404171135     -1.1801585429     3.6127608307
C     2.8751141123     -1.0754740807     2.9993016328
C     3.4178918388     0.2394202811     2.6754179285
C     4.2924370792     0.4079515066     1.5652178344
C     2.6661855698     1.370456129     3.0459801695
C     -0.5967703515     -2.4474992951     3.4758252183
C     -1.4013415409     -1.3003862911     3.6172074022
C     -0.7366305213     -0.0245157915     3.8591415727
C     0.733631565     0.0177720188     3.8733526606
C     1.3663584238     1.2551107258     3.6849047101
C     -2.8291269117     1.0976588101     3.1603613528
C     -1.4782099773     1.1927725052     3.6299622217
C     -2.7402835956     -1.3536341424     3.0222388364
C     -3.417671199     -0.130749703     2.8039579089
C     -3.0995792588     -2.4343358793     2.1720012101
C     2.6742543661     2.568667785     2.2770984477
C     3.3642840657     2.6626927434     1.0410468216
C     4.2418842815     1.5859200431     0.7481335235
C     4.461647173     1.1644083395     -0.6188856548
C     3.8557811988     1.8513278412     -1.6469630304
C     1.4772527155     4.1237237554     0.1699445662
C     2.7526467906     3.4306479651     -0.0517372713
C     3.0751159131     3.0371120809     -1.3728555769
C     0.6450141966     4.3731283458     -0.9444459843
C     0.9246387204     3.7965186869     -2.2266219139
C     2.1183248563     3.1364199836     -2.4354038138
C     1.4136737533     3.2331364692     2.4825212068
C     -0.5926161524     4.179741912     1.5864822197
C     0.8195303448     4.0290234157     1.4819326826
C     -0.7787805726     2.4406136001     3.3526556909
C     0.6295017817     2.4397315077     3.3846468674
C     -1.3676753834     3.43282441     2.5176516296
C     -2.6593517407     3.6968102451     0.5542326864
C     -1.4110422049     4.3673946513     0.3963674662
C     -0.7984501794     4.4105735979     -0.8323300172
C     -3.2395750473     2.9418323657     -0.495013844
C     -2.5447582618     2.9195730714     -1.7870988662
C     -1.3797851444     3.6907711926     -1.9348475212
C     -4.1878006932     1.4309918901     1.2609312108
C     -3.3786100081     2.0904779265     2.2603439449
C     -2.6635418298     3.2008201826     1.9161937486
C     -4.3218102814     0.810268328     -1.0722991379
C     -4.0977777955     1.8222655828     -0.1165815398
C     -3.8689042413     -2.2210050082     0.9558980353
C     -4.5163119524     -0.5594064932     -0.6885424844
C     -4.4380419369     -0.9505103194     0.6723282332
C     -4.2872606832     0.0704604631     1.6427805434
C     -2.4932657366     -0.9276917465     -3.5932551642
C     -3.5394582573     -0.5386739173     -2.7855662908
C     -3.9748973549     -1.4035680665     -1.725226943
C     -3.2673581834     -2.5960586977     -1.4218526505
C     -3.3017066612     -3.0258483968     -0.0671111512
C     -2.6889585761     1.7816731529     -2.6925811302
C     -1.5684719583     1.3681825154     -3.55114251
C     -1.5207468504     0.0380263323     -4.0072367774
C     -3.664910869     0.823731245     -2.3664775782


