92

 C     -1.7042751355     3.7730214409     1.6699603462
C     -2.4800504687     2.7636655037     2.2576179632
C     -3.6448457482     2.3573317923     1.5221783507
C     -4.2117132178     1.042943841     1.6985959218
C     -3.6551378198     0.1871420092     2.6063093652
C     -0.3183985689     3.9258248004     1.9904147771
C     0.3748702369     2.9962914303     2.7872466482
C     -0.3829594658     1.8690982997     3.343110219
C     -1.8058803433     1.8107667434     3.133078556
C     -2.4503950578     0.5573018603     3.338033215
C     1.7318705389     0.6169111661     3.5741880326
C     0.3250131658     0.6384349799     3.6742844971
C     2.4832812584     1.7381204597     3.0176272903
C     1.8184664077     2.8958311992     2.5792921574
C     2.4460791538     3.5839582004     1.4964172618
C     -3.5331263667     -3.0026875109     0.7401367629
C     -4.1249710357     -1.7807232746     1.1332004881
C     -3.6477814935     -1.2407140711     2.3650508992
C     -2.4893393076     -1.7526293529     3.0001764951
C     -1.823563791     -2.9072828297     2.5552782989
C     -2.4488259179     -3.5878938335     1.4663134592
C     -0.3141991189     -4.5255271436     0.7990853535
C     -1.6411454145     -4.3322701852     0.5327787939
C     -0.3325036518     -0.6575302884     3.6690922918
C     -1.7391408224     -0.6353054401     3.5661064535
C     2.4436225782     -0.5740927966     3.339399693
C     1.7995667526     -1.8261033466     3.1243866894
C     0.376195982     -1.8858774501     3.3309407415
C     -0.3804174034     -3.0091874459     2.7656516913
C     0.3145832005     -3.9331863217     1.9638983168
C     -4.6091462192     -0.8500752134     0.0977364947
C     -4.6963512168     0.5435398333     0.4179275059
C     -3.3032975839     -3.3035815314     -0.6695548134
C     -3.6514326233     -2.374212364     -1.6231870763
C     -4.3615805972     -1.1688305787     -1.2588283244
C     -2.0893941812     -4.0399416928     -0.8124064073
C     -2.7274097091     -2.0660640598     -2.6776317478
C     -1.4616550536     -2.6642990455     -2.7661102493
C     -1.1474499593     -3.7502773924     -1.8362326118
C     1.2447038378     -3.463190967     -2.3533737207
C     0.2433051316     -4.0967657848     -1.5760649496
C     0.6363663722     -4.537275773     -0.2795400544
C     -3.9811073218     -0.1534600899     -2.2010148301
C     -4.0082117953     1.2267225667     -1.855151873
C     -4.4248524846     1.5563927484     -0.5278377312
C     -3.0726442008     2.0702777458     -2.4986678749
C     -2.9434359876     -0.6875366791     -3.0413562934
C     0.9123830366     -2.3524525347     -3.2376552006
C     -0.3840264641     -1.8628963039     -3.3658578277
C     -0.5638664973     -0.4287904895     -3.6565896092
C     -1.8930929059     0.1282989524     -3.5119275903
C     -2.0451108338     1.5285666068     -3.3240882939
C     -2.552653457     3.2669813347     -1.8577011948
C     -2.8999278575     3.5603318988     -0.5036007961
C     -3.8192533688     2.7018458844     0.1614368075
C     -1.907868331     4.179433344     0.2937560962
C     -1.2392030068     3.4857555183     -2.3319899943
C     -0.2394833985     4.1139267374     -1.548161233
C     -0.6353446788     4.5454452865     -0.2494699977
C     1.6404139143     4.334789492     0.5663167122
C     0.3128947447     4.526215044     0.831091114
C     2.7336185138     2.0908790685     -2.6573599661
C     1.468050493     2.6897226001     -2.7444196651
C     1.1518348822     3.7692328817     -1.8077251056
C     2.0915691067     4.0517855129     -0.7798884064
C     2.0527282732     -1.4991823665     -3.3301615175
C     1.9011043772     -0.0976465174     -3.5086271561
C     0.5721917413     0.4604429681     -3.6522899538
C     0.3917176403     1.8925031836     -3.3520253012
C     -0.904968156     2.3811662629     -3.2232244271
C     2.9504324185     0.7148994052     -3.030155609
C     4.3647271096     1.1838210445     -1.2412776295
C     3.6553607589     2.3916992146     -1.5988140489
C     3.3051681575     3.3144430893     -0.6395228229
C     4.6958709518     -0.5401220568     0.42430315
C     4.6093573158     0.8556726656     0.113580957
C     3.0784874427     -2.0466085615     -2.5062973534
C     4.4264208769     -1.5463937974     -0.5290358849
C     4.0126509493     -1.207538171     -1.8549374349
C     3.9862894671     0.1750044185     -2.1912981098
C     1.9077079046     -4.1750474283     0.2689510696
C     3.8193494071     -2.6965904384     0.150984686
C     2.9014748188     -3.5504438926     -0.5219637069
C     2.5571247711     -3.2477177328     -1.8747524492
C     3.6499327818     -0.1988846419     2.6128535012
C     4.208477998     -1.048382094     1.7004412068
C     3.6420071755     -2.3615113364     1.5137013006
C     2.4756386818     -2.77291965     2.243803101
C     1.7011468382     -3.7781770034     1.6474989346
C     3.5319460918     3.0037859761     0.7685521824
C     4.1229418626     1.779125886     1.1544263147
C     3.6430929193     1.2306065811     2.3814746794


