92

 C     4.4782233772     1.5913235421     0.0086761374
C     4.7341229557     0.2023067798     0.003214043
C     4.5287147274     -0.4961079096     -1.217369288
C     4.5271028973     -0.5059788146     1.2178234315
C     3.8730386375     0.1248912068     2.3089268192
C     3.4683398191     1.4836457371     2.2855526938
C     3.9329722515     2.2435678852     1.1756789156
C     4.1208125289     -1.8980806325     1.2110062763
C     3.9027284841     -2.6123695176     -0.0087436116
C     4.122423256     -1.8882159243     -1.2223747588
C     2.899965405     -3.6390358657     -0.0135691721
C     3.2991272414     -2.1353397322     2.3580089129
C     1.103558137     -2.8477854704     3.0917905924
C     2.2615109316     -3.1059757686     2.308138989
C     2.0847073634     -3.8728137572     1.1380816369
C     1.6097643163     3.0713375779     2.5378033532
C     2.2109185635     1.8569222271     2.9412470283
C     1.358651312     0.8444405488     3.543238242
C     1.8646929881     -0.5291796594     3.6043351733
C     3.0929083962     -0.8685007941     3.0100520614
C     0.9356247577     -1.6120211408     3.7473296417
C     2.0862356969     -3.8634709932     -1.1681580565
C     2.2645796011     -3.0871691265     -2.3317195093
C     3.3022554307     -2.1161662249     -2.3723465081
C     1.1076598247     -2.8226307474     -3.1147831304
C     0.7452793155     -4.203188918     -0.7175612131
C     -1.6874592442     -3.5604385045     -0.7400609748
C     -0.4345932174     -3.8484555862     -1.4534882112
C     -0.2179656964     -3.2912015013     -2.7233897366
C     -3.8265763192     -2.3367646522     -0.7232135462
C     -2.7389967098     -2.8604195506     -1.4584937338
C     -0.2215461219     -3.3131604573     2.694860773
C     -0.4364949167     -3.8601094521     1.4202003457
C     0.744353389     -4.2088638876     0.6829783844
C     -2.7409076423     -2.872131756     1.430169282
C     -1.6884164136     -3.5663104817     0.7074759019
C     -3.8275137635     -2.3425260163     0.6977218072
C     0.9405860392     -1.5815902498     -3.7604997441
C     1.8694579052     -0.4999486253     -3.6075029099
C     3.0968918028     -0.8440793641     -3.0143704402
C     1.3633296921     0.8731328838     -3.5359417732
C     2.2147946872     1.88069748     -2.9246376494
C     1.6131008959     3.0918061687     -2.5121558598
C     -0.4638404639     -1.3295586796     -3.9110863504
C     -2.3450900074     0.0959189345     -3.6054404743
C     -0.9675958104     -0.0193539714     -3.8973751694
C     -0.0633918976     1.1039256842     -3.6432889709
C     -0.6578262159     2.2956620619     -3.0718810321
C     0.2004233482     3.2588749773     -2.5264899441
C     -2.4499795968     -2.2281879061     -2.7456137703
C     -1.1769778513     -2.4099465923     -3.3081167883
C     -3.0982359981     -1.0159976188     -3.1005257018
C     3.471352452     1.502114667     -2.2703307033
C     3.8760896289     0.1435916698     -2.3041875308
C     2.1291816612     3.8653387501     -1.3994609116
C     3.2417959888     3.4328242209     -0.7113100915
C     3.9345116864     2.2530104904     -1.1537211287
C     1.0010815562     4.4249195521     -0.6799487205
C     3.2408363328     3.4269339191     0.7419335727
C     2.1273102537     3.8538626151     1.4320984668
C     1.0001594836     4.4192621306     0.7156564761
C     -1.3997468405     3.8275058202     -0.7163506767
C     -0.1894413401     4.0720639722     -1.3801648282
C     -0.1912862448     4.0607494435     1.4114166188
C     -1.4007121142     3.8215866028     0.7440427741
C     -2.4181429178     3.0954527783     -1.4427532821
C     -2.9062181211     1.3037487587     -3.0460795398
C     -2.0574868459     2.3466167379     -2.6466984864
C     -3.5681068988     2.7274404871     -0.7224474415
C     -4.4246894042     1.6546615925     1.167699707
C     -3.5690737606     2.7215192015     0.7383559322
C     -2.4200637742     3.0836746219     1.4631409748
C     -4.0851496159     0.9343313835     2.3074694404
C     -2.9102475607     1.2790338056     3.0512412426
C     -2.0609959362     2.325102381     2.6614509101
C     -4.0821011878     0.9530353699     -2.3066800028
C     -4.9374256258     0.9681746678     -0.0000699591
C     -4.4231479286     1.664102287     -1.1615566848
C     -4.1840455086     -0.511038349     2.3002392229
C     -4.5800990466     -1.1775723989     1.1558787614
C     -5.0052635362     -0.4280461941     -0.0057746958
C     -4.5785612975     -1.1681341545     -1.1729045933
C     -4.1809986928     -0.4923459062     -2.3112991102
C     -1.1813352841     -2.4366746774     3.2854456823
C     -3.1023212744     -1.0410757191     3.0866235802
C     -2.4535911471     -2.2503543032     2.7227547579
C     0.1970669644     3.2382934806     2.5516273651
C     -0.6618971159     2.2706959454     3.0880570424
C     -0.0682110449     1.0743626425     3.65056812
C     -2.3498520206     0.0667045774     3.6015306384
C     -0.9727425507     -0.0509384008     3.8943427018
C     -0.4689994604     -1.3612123143     3.898101986


