92

 C     1.4502852713     -3.4678217736     2.26703239
C     2.4083362662     -2.4882392536     2.5367124388
C     3.530057747     -2.4465295746     1.6354139326
C     4.2838106017     -1.235782748     1.4572404262
C     3.9920848646     -0.1494940477     2.2241969166
C     2.8597982077     -0.1697517169     3.1432269829
C     1.9717164314     -1.2783083702     3.2225682767
C     0.0992964417     -3.3181359859     2.7088189184
C     -0.3923917795     -2.0977403835     3.237425212
C     3.9295009599     2.5874729208     -0.2627841081
C     4.4574011056     1.4084518344     0.3132266126
C     4.1580376147     1.193463161     1.7033562624
C     3.2430549146     2.0074845024     2.3966493624
C     1.4256937748     3.5898304461     2.2613529218
C     2.6986495558     3.1762161495     1.8133213305
C     3.0601241789     3.4661935177     0.4670499087
C     -2.6245585497     -2.7640393652     2.4004186334
C     -1.8128369835     -1.8116473291     3.0887081492
C     0.5621983785     -1.0255757652     3.4772303187
C     -1.3339144493     0.6534620863     3.3691618383
C     0.0758077046     0.3474445022     3.5780303385
C     1.0424708133     1.432455452     3.4985678564
C     2.4085110374     1.1449744458     3.2592094462
C     0.6178117681     2.7362807655     3.1416387543
C     4.6630730682     0.2241969254     -0.5481571517
C     4.6442526308     -1.0757655325     0.0518016655
C     3.4715299323     2.6027615653     -1.6388101865
C     3.6029421765     1.4762132341     -2.4219545405
C     4.2537217225     0.2907100335     -1.9023192632
C     2.291749779     3.401754947     -1.7351598203
C     2.5298979618     1.081073683     -3.2763563339
C     1.312777567     1.7873890261     -3.3220420005
C     1.2032487874     3.0270660714     -2.5548973502
C     -1.6224045378     4.3001846983     -0.4077757857
C     -0.3127550129     4.2768407487     -0.9413185832
C     -0.1035859033     3.5658214309     -2.2069399154
C     -1.2140792424     2.9668990265     -2.8244479974
C     2.0788845642     4.0119319668     -0.4375048422
C     0.5451420786     4.2973141283     1.4116397873
C     0.801838948     4.3977992911     -0.0012003523
C     3.6556752337     -0.8365951661     -2.5568999612
C     3.5827668184     -2.1093414101     -1.9289339238
C     4.1309732668     -2.2109113242     -0.611800417
C     2.4916817385     -2.945806957     -2.2731054261
C     2.5665711866     -0.3535375396     -3.3732643698
C     -1.1019435759     1.6861686462     -3.5006205748
C     0.115745543     1.0242387672     -3.6554174316
C     0.1173977095     -0.4423031783     -3.6755919182
C     1.3931451691     -1.1162110592     -3.5504010501
C     1.4273364436     -2.4588962779     -3.084824269
C     1.9335452936     -3.8989545807     -1.3325347217
C     2.4069885228     -3.935766914     0.0146203076
C     3.4893504185     -3.0906183734     0.3751974562
C     1.4536584185     -4.2198001906     1.0255193466
C     0.552670957     -4.0489415309     -1.617966764
C     -0.3997908308     -4.3591160654     -0.6178463149
C     0.1006132134     -4.5342860757     0.7033610406
C     -2.0230049452     -3.8322862587     1.6495504179
C     -0.7041209875     -4.1162720337     1.8226280468
C     -3.3003522704     -2.3138589698     -1.9014603483
C     -2.1008838463     -3.0397314122     -1.9486573381
C     -1.7781999359     -3.9206706806     -0.8205036859
C     -2.6184355557     -3.8660252514     0.3198596113
C     -2.3255591171     0.9729006085     -3.3267693104
C     -2.3327652643     -0.440361177     -3.2390750936
C     -1.0949804561     -1.1706094363     -3.3845823331
C     -1.0224791312     -2.518870549     -2.8045446484
C     0.2259912275     -3.1258596299     -2.6922569957
C     -3.4152864461     -1.0099833921     -2.5270973937
C     -4.7322035478     -0.996193196     -0.619028768
C     -4.1599416558     -2.3193313139     -0.7513931652
C     -3.7711840311     -3.0318504136     0.3735848913
C     -4.8198070639     -0.4047713291     0.6341174303
C     -3.2192043934     1.7853966891     -2.5544815624
C     -4.1307376621     1.2066338369     -1.6452180034
C     -4.3028168783     -0.2040179803     -1.7509454348
C     -3.5796104503     3.0294087181     -0.0498221831
C     -2.7247329085     3.6589183352     -1.0510430206
C     -2.5296128024     3.0216158093     -2.2627885939
C     -4.5495737885     1.0000448627     0.789502035
C     -4.293755463     1.838662426     -0.3282715057
C     -0.7882521703     4.0433809343     1.8847855868
C     -3.8171457462     1.162963681     2.013466314
C     -2.9418879381     2.2355570013     2.2190984572
C     -2.9779316882     3.2578534195     1.2222880127
C     -1.8387516816     4.1146736532     1.0188587689
C     -3.7992625636     -2.3775723473     1.6790000656
C     -4.2734688094     -1.0913868021     1.7925440497
C     -3.5442880861     -0.1342854301     2.5785522211
C     -2.2830293053     -0.4361112338     3.1526859959
C     -1.7273795927     2.0014407246     2.9972469222
C     -0.7359309676     3.0103826526     2.9097590997


