92

 C     0.2646810201     1.7319521713     3.8266083018
C     1.4923524776     2.1533013631     3.3133476854
C     2.5407778168     1.1836482096     3.3816545069
C     3.6589886424     1.2394346174     2.4772835639
C     3.7209494459     2.2419871311     1.5490906428
C     -0.9626024082     2.3500975212     3.4364938695
C     -1.0227698135     3.2863320765     2.3765477208
C     0.2407374859     3.6918199127     1.7503904536
C     1.4925519519     3.175941306     2.27349934
C     2.6581047989     3.2343082197     1.4530143535
C     -1.0438713507     4.2856888725     -0.271362863
C     0.2132650227     4.1997653465     0.3844493802
C     -2.2653584333     3.849299424     0.3283488457
C     -2.2911950837     3.3607581542     1.648920513
C     -3.3586530534     2.4551665985     1.9578795696
C     4.4094050751     0.2934042372     -1.5222445308
C     4.626825325     0.6446813885     -0.1649997044
C     4.244771373     1.9712463158     0.2229648438
C     3.5645967721     2.8402701766     -0.6621186416
C     2.0968887096     2.964303302     -2.5814379838
C     3.2652690421     2.4409590806     -1.9952508593
C     3.6805419721     1.146474304     -2.4049605634
C     1.393873488     4.1012498691     -0.4696047098
C     2.5972619095     3.6324641599     0.1010909906
C     1.2370764162     3.8762663524     -1.8747006321
C     4.5643636145     -0.4264038269     0.845598717
C     4.0867552402     -0.1090530541     2.1457784395
C     4.0918908466     -1.0699437915     -1.9035417262
C     4.1033278574     -2.0785661149     -0.9750909415
C     4.3411321689     -1.7613641062     0.4304310483
C     3.0614295432     -1.0456082761     -2.9076930417
C     3.1652692933     -3.1544543533     -1.0812054011
C     2.1177309211     -3.1493235025     -2.041807943
C     2.0308871947     -2.0080471762     -2.9574273783
C     1.2753788469     2.1536646632     -3.4486393213
C     1.5543161808     0.7799899538     -3.6572121152
C     2.8259404427     0.3253130498     -3.2347583387
C     0.4515606764     -0.1595836873     -3.7655277619
C     0.7364091622     -1.5789370635     -3.4831288302
C     -0.3489478955     -2.4411905187     -3.2912619184
C     2.9199698343     -3.5931132658     0.2696126012
C     3.541883812     -2.6667056007     1.1904053016
C     2.8505382556     -2.2534342464     2.3714280256
C     3.2235468858     -0.9852934041     2.8573682486
C     1.7290566873     -4.1759350489     0.6083767139
C     0.7524193275     -4.4425808307     -0.4064240802
C     -0.2754869524     -3.5948697716     -2.4168489039
C     0.9158909335     -3.9024314986     -1.7170691585
C     1.037157797     -3.807123791     1.8290898924
C     1.5053764301     -2.7756845675     2.65610774
C     0.510938011     -1.9510487336     3.3518660868
C     0.9547286029     -0.6646587259     3.8603752059
C     2.2691450778     -0.1881189485     3.6094807321
C     0.0034831685     0.3396449791     4.1205773056
C     -0.3541649864     -4.0188330288     1.5986163057
C     -2.6001072684     -3.1636109483     1.6022443043
C     -1.330949685     -3.2375238438     2.249249376
C     -0.9041119306     -2.1741185563     3.1462677368
C     -1.8706645809     -1.1079816024     3.4408771744
C     -1.3880995443     0.0980512119     3.9617803243
C     -1.5651535397     -3.7871739778     -1.8504473617
C     -1.7087848542     -4.163850348     -0.4815334049
C     -0.5310197658     -4.4666032656     0.2303926769
C     -2.7882698475     -3.6043981936     0.262649291
C     -3.5093078743     -2.0736339799     1.8458858465
C     -3.1788651248     -1.0517177945     2.7477784609
C     -3.8118446975     0.2127999973     2.5305922285
C     -3.1778345795     1.4329091575     2.9531366233
C     -2.0050219608     1.3813848422     3.6500125789
C     -4.2419064916     -1.8171671526     0.6385420847
C     -4.5762786768     -0.0952054958     -1.0612594015
C     -4.651843348     -0.4929478268     0.3004364864
C     -4.4794749551     0.5086507208     1.3051477705
C     -2.4591577981     -2.8079341617     -2.424187845
C     -3.9855669748     -0.9618855772     -2.0367276003
C     -3.5621215698     -2.2854746226     -1.6984271504
C     -3.7496279243     -2.723028451     -0.3562947949
C     -0.0629709949     2.6245117363     -3.3700100015
C     -1.1572745118     1.7571495648     -3.4642533175
C     -0.9035878089     0.3368148103     -3.7180399353
C     -3.2243227068     -0.1506932104     -2.9415013903
C     -1.9984927168     -0.6027899453     -3.4826082162
C     -1.6983777758     -1.9770751911     -3.3066406771
C     -2.3896341931     3.3068186611     -1.9292022517
C     -1.1642347054     4.0195712816     -1.679356701
C     -0.0574596107     3.7514495319     -2.442931267
C     -3.4117607674     1.2263975387     -2.5655316704
C     -2.409864353     2.1908765778     -2.8055848951
C     -4.1971785878     1.8904178103     0.9514723109
C     -4.2441135206     1.2670261562     -1.4105227245
C     -4.0496493391     2.2669362075     -0.4121189127
C     -3.1287109959     3.2988525155     -0.7016753526


