92

 C     -4.645047833     -0.0904561069     -0.0411334282
C     -4.4380787874     -1.4871953511     -0.1251424803
C     -3.8469306002     2.6832636476     -0.0234950601
C     -4.022768957     2.029862871     -1.2181306353
C     -4.4229682002     0.6371830092     -1.2416402201
C     -0.9129828981     2.9707875017     -2.9671909683
C     -3.1027767684     2.2800543087     -2.2962560922
C     -2.0199007229     3.1999237941     -2.1445086104
C     -1.8022301056     3.8792974703     -0.8702066004
C     -0.4341960147     4.2335809492     -0.467066714
C     -2.7721305745     3.6464880964     0.1373961996
C     -0.1559500487     4.296208206     0.915000463
C     -3.7585200649     0.0436648193     -2.3518582574
C     -3.3771566923     -1.3126874954     -2.3719832994
C     -3.8638422515     -2.0930875002     -1.2845426405
C     -3.1500911729     -3.2784987173     -0.8582887507
C     -2.0789347054     -3.7192372734     -1.5986372904
C     -2.9346872149     1.0471877108     -2.9900123349
C     -0.7727450162     1.750648809     -3.7168181045
C     -1.7101570476     0.7000482916     -3.6113173579
C     -1.2399252837     -0.6774476804     -3.6218092927
C     -2.1321502385     -1.7001648696     -3.0584061504
C     -1.5879678403     -2.9470182208     -2.7286977457
C     0.4353010483     -4.3381939914     1.0222037233
C     -0.8746206007     -4.3215536302     0.4781342607
C     -0.9699411358     -4.3298713131     -0.9456479376
C     0.1880575454     -4.1039984067     -1.7754205601
C     2.4469921694     -3.2414970267     -1.8709855371
C     1.4875518307     -4.065851227     -1.2274454185
C     1.6207915748     -4.2575237035     0.1753260479
C     0.7029601236     -2.235185414     -3.3456552321
C     -0.1910108082     -3.2134145532     -2.8387262391
C     3.2369501002     1.1339368132     -2.9114382809
C     2.5176081757     0.0224877793     -3.4169768022
C     2.9387448097     -1.2361871572     -2.9364663983
C     2.0548705184     -2.3578115572     -2.9403166773
C     0.1752911891     -0.9357583608     -3.7531932668
C     0.6157315119     1.4866145702     -3.8898807761
C     1.1251775058     0.179165051     -3.863528788
C     -1.9375319491     -3.7097678126     1.2634191523
C     -3.1212814627     -3.330044467     0.5728028186
C     -3.9582714612     -2.248893132     1.0221867764
C     -1.5947039053     -2.9739411487     2.4824535466
C     -2.4742728405     -1.9520604222     2.9251606569
C     -3.6643132425     -1.6005594041     2.1967251849
C     2.1285870843     -3.329497528     2.2037081522
C     0.7316106137     -3.695295584     2.2501513859
C     -0.2255872861     -2.8858689276     2.9283995096
C     2.5720560931     -2.2430512808     2.8944707195
C     1.638369084     -1.4315723008     3.6436001896
C     0.248178479     -1.6874394948     3.6173701631
C     3.4927167036     -2.6006715602     -1.1383486304
C     3.5746232885     -2.7005519761     0.2694039819
C     2.6663014045     -3.6146830673     0.8958504014
C     -4.0354937172     1.9620508597     1.2290519857
C     -4.4042864881     0.5897687966     1.2395523729
C     -3.8956907059     -0.1758235549     2.3204553108
C     -2.8792017966     0.3317907031     3.1825896984
C     -2.4049714192     1.6547648713     3.0877310872
C     -3.0943202095     2.4887807997     2.1616445856
C     -1.1170235346     3.8856587075     1.8928155389
C     -2.3977198339     3.5790805192     1.5138804986
C     -0.6216821081     -0.540437682     3.7989156362
C     -1.9922511563     -0.7515764265     3.5335877146
C     2.1559275556     -0.1133655269     3.6776772582
C     1.3223517888     1.0325239194     3.6890634474
C     -0.1069403756     0.8238591609     3.7837148109
C     -1.007375406     1.9210320671     3.4251806376
C     -0.4384951519     3.1043435382     2.9093774482
C     3.4310436233     -0.1161331138     2.9623192319
C     3.8720144836     1.0125071574     2.3175163767
C     3.1078057392     2.2307393828     2.4065291993
C     1.8665814739     2.2520655486     3.0930553898
C     0.9590051938     3.2417684503     2.6714800214
C     4.4856795274     -0.3193474926     0.3114233192
C     4.0704700249     -1.5354263854     1.0220296947
C     3.6195666057     -1.3947462489     2.35632169
C     4.4590728364     0.9077617608     1.0104542611
C     4.0052734408     2.2193654596     -1.0141955077
C     4.1232558651     1.0070789274     -1.7867020897
C     4.3405197437     -0.2466474431     -1.1483478287
C     3.8267730465     -1.3711752342     -1.8249921484
C     4.1680918365     2.1661833519     0.3494967749
C     1.3401662105     2.6045922006     -3.3177896037
C     2.9975242994     3.0766877208     -1.6101443267
C     2.611302696     2.4302068786     -2.8235374711
C     1.1478160334     3.9760142258     1.4486507363
C     3.2997683811     2.9529138955     1.1863543188
C     2.2566471385     3.7514557696     0.6203936919
C     2.0545070646     3.788949166     -0.8261354504
C     0.7038083908     3.9941031454     -1.3620150141
C     0.4120217808     3.4434260882     -2.6299740519


