92

 C     -2.4336773296     1.0810701039     -3.460597202
C     -2.8778238548     -0.239178999     -3.2577880265
C     -3.9974498849     -0.3987601178     -2.3811507038
C     -4.2240139444     -1.6345616105     -1.6810107508
C     -3.3399649729     -2.6776376619     -1.8562928473
C     -1.1010928322     1.3543882054     -3.8733055898
C     1.1968043186     0.7310699523     -4.0384685547
C     -0.1482097052     0.31869157     -4.0702975531
C     -0.510832154     -1.0536690024     -3.7353920524
C     -1.8956310121     -1.3303505311     -3.4000205745
C     -2.1814045541     -2.5320222714     -2.7172319705
C     -4.3407480966     -2.077021819     0.7341312668
C     -3.4270621283     -3.1864394956     0.547868418
C     -4.7485396451     -1.3247907795     -0.3603767319
C     -2.9533942906     -3.4961132364     -0.7234215611
C     -1.5931636512     -3.8760545323     -0.8974185372
C     -2.5174006631     -3.1957068884     1.6531663515
C     -1.1733998484     -3.5634485188     1.5086308263
C     -0.70577254     -3.9716765513     0.1845873685
C     2.5184860031     -3.2171052435     -1.6101666044
C     1.1747941232     -3.5838572437     -1.4603394863
C     0.707501968     -3.9733521086     -0.1305479713
C     1.5948066668     -3.8614014537     0.9499636574
C     2.2461350845     -0.1859491137     -3.7183799782
C     1.9328164213     -1.5130357249     -3.3369291236
C     0.5412751591     -1.9518845447     -3.2991481636
C     0.2121343227     -3.0573203961     -2.4232376183
C     -1.1345322825     -3.3273068321     -2.1711887441
C     2.8930512537     -2.1573150296     -2.5225556752
C     -3.3308814765     0.582140173     3.1057998754
C     -4.1626745724     -0.0186488972     2.1256082879
C     -4.0155298674     -1.4256002845     1.9764276346
C     -2.8928673221     -2.1231939441     2.5501917888
C     1.1357051522     -3.2947365856     2.2156937672
C     -0.2111895574     -3.0222784551     2.4638319011
C     -0.5412650723     -1.9046091892     3.3237193712
C     -1.9331769304     -1.466435426     3.3551833876
C     -2.2476093703     -0.1342559931     3.7174750595
C     -4.5830370796     0.7813990411     0.9677660627
C     -4.84973755     0.107076179     -0.2573382489
C     -2.8968184298     1.947553115     2.9813353317
C     -3.2413922821     2.6831296032     1.8564703895
C     -4.0937240304     2.1236603289     0.8635142037
C     -1.5883783929     2.0857498827     3.5304636867
C     -0.6242546375     2.9351169109     2.9272523107
C     0.7083039626     2.6431425655     3.2313007837
C     2.181903279     -2.4907826195     2.7502151628
C     1.8951155401     -1.2796377748     3.4156159746
C     0.5100822174     -0.9993164357     3.746967409
C     0.1463096693     0.3774242136     4.0620674979
C     -1.1990523364     0.7881660444     4.0243002605
C     1.0983097982     1.4109798876     3.850169966
C     -3.7014477302     2.6874049506     -0.4081091455
C     -3.8500904141     1.9536385046     -1.6057119895
C     -4.4463371021     0.6667434348     -1.5283653707
C     -2.8934629459     2.1752823721     -2.6285624032
C     -2.553167447     3.5295656011     -0.2044889086
C     -0.1516253449     3.8485511492     -0.7322570585
C     -1.5314806585     3.6534162302     -1.1679685
C     -1.7897305149     3.0467612664     -2.4348465151
C     2.2377275414     3.5016643436     -1.2518486462
C     0.9235077881     3.5888300566     -1.7069366688
C     -0.9281537414     3.6122641742     1.6518486627
C     -2.2422944858     3.5174324608     1.1980672109
C     1.7855370702     3.0830250959     2.3874753507
C     1.5267822362     3.6711399051     1.1119899393
C     0.1467656827     3.8588121058     0.6735199946
C     2.5485791084     3.5342712197     0.1503886512
C     0.6201865661     2.893118812     -2.9724535806
C     -0.7121204634     2.5956729353     -3.27225023
C     1.5850356599     2.0359638324     -3.5633724646
C     4.0903196034     2.1144191728     -0.8972536657
C     3.2375284318     2.6587985851     -1.8981611063
C     2.8935797279     1.9067972895     -3.0123123332
C     4.8480272995     0.1148312698     0.2525278445
C     4.580766946     0.7712004895     -0.9821539234
C     2.8900089372     2.215357661     2.5937313993
C     4.4441484619     0.6924221988     1.5153752316
C     3.8468222628     1.9797984862     1.5741702674
C     3.6975666632     2.6961010489     0.3661201485
C     3.3405953086     -2.647817185     1.8914580071
C     4.2237670852     -1.6066332319     1.7011574431
C     3.9961567635     -0.3610536371     2.3834145928
C     2.8763873504     -0.1897987699     3.2576765831
C     2.4311401476     1.1328605858     3.4414371796
C     4.3408838184     -2.0837530073     -0.707356375
C     3.4281310937     -3.1911426725     -0.5051216485
C     2.9547191674     -3.4828605999     0.7705011178
C     4.7480389222     -1.3154853672     0.3761960827
C     3.3287962564     0.5400984623     -3.1170923433
C     4.1610850644     -0.0458019176     -2.1283466539
C     4.0151272417     -1.4505797773     -1.958909908


