92

 C     -2.126882796     3.5834073231     1.3737399504
C     -2.6025521344     3.4058081209     0.0655960813
C     -3.7479952878     2.4997432623     -0.1467585738
C     -3.9025422573     1.8339314654     -1.4377393773
C     -4.5238206255     0.5552180215     -1.5267316605
C     -2.9654634931     2.1266863354     -2.4438974253
C     -0.2521654488     4.0466569066     -0.6991647277
C     -1.6516599582     3.6890226341     -1.0063404615
C     -1.927453353     3.1188626935     -2.2654773769
C     0.720752544     3.8721313283     -1.6954240247
C     0.4058236809     3.1919575382     -2.9174416196
C     -0.8767883203     2.7807377639     -3.1674126338
C     0.2377236378     4.0537204285     0.6741357337
C     1.6384398407     3.7037293643     0.9845172648
C     -0.7346035754     3.8848776974     1.6719536482
C     1.9161874304     3.1459571384     2.248761694
C     -2.4549581806     1.1115899289     -3.3112567568
C     -2.8465462578     -0.2314600009     -3.1891684869
C     -4.0065072497     -0.4612378383     -2.3974107136
C     -4.2370883602     -1.7421583388     -1.771196494
C     -3.2992247095     -2.7398505461     -1.9382240947
C     -1.1168996753     1.463101686     -3.6975452061
C     -0.081074603     0.5122311585     -3.7877406795
C     -0.4167607569     -0.894391613     -3.5422945425
C     -1.81084417     -1.257424541     -3.3257052218
C     -2.1010154519     -2.5105794432     -2.7323085987
C     2.03137068     -1.3504552487     -3.0982851773
C     0.6356001129     -1.7907544917     -3.1245210062
C     0.2871534932     -2.9726490328     -2.3621526599
C     -1.0612419984     -3.2944905962     -2.1824910976
C     2.9733563852     -2.1523991282     -2.4123237608
C     2.3658097526     0.0459919864     -3.3411905452
C     1.2944026792     0.988246412     -3.6324161638
C     3.5821993446     0.5501820476     -2.8071882763
C     1.4983052635     2.3482766984     -3.2895060246
C     -4.4514343318     -2.2740970407     0.6222385726
C     -3.4501473214     -3.2961129068     0.4565118619
C     -4.8631320747     -1.5235413804     -0.4808839037
C     -2.9287660462     -3.5708853907     -0.8118091221
C     -1.5533186935     -3.9070298806     -0.9477257938
C     -2.5500238314     -3.2274796398     1.5762971318
C     -1.2020586375     -3.5590194978     1.458244988
C     -0.7020375141     -3.9920272272     0.1586133043
C     2.5607397433     -3.2327464418     -1.5353687005
C     1.2139220699     -3.5678599834     -1.4143037707
C     0.7153800741     -3.990797212     -0.1107986534
C     1.5663508011     -3.892857458     0.9947151646
C     -4.9075336372     0.5228153504     0.875917762
C     -4.4536366385     -0.2541260874     2.0212913634
C     -5.0604460105     -0.0965812064     -0.3511966307
C     -4.1808835571     -1.6038735127     1.8806955759
C     -2.6128366343     2.7611245549     2.4457344991
C     -3.6462930405     1.8899429709     2.2444843025
C     -3.5845744436     0.5632704392     2.8138072474
C     -2.9663868893     -2.1406638587     2.4434311305
C     -2.0271911866     -1.3292922738     3.1220805403
C     -2.3664578438     0.0681364821     3.352336239
C     0.0787959974     0.5468509813     3.7945946754
C     -1.2983136808     1.0166822006     3.6349825479
C     -1.5069067079     2.3728437822     3.279783111
C     1.1113306425     1.500439798     3.6957808858
C     0.8666807314     2.8123875245     3.1537427985
C     -0.4173378296     3.2168921689     2.9000808497
C     1.8146771908     -1.2209340541     3.3485838599
C     1.0721371936     -3.270851706     2.2238866598
C     -0.2773612293     -2.9520516138     2.4006436272
C     -0.6299046952     -1.7645098478     3.1522796861
C     0.419345887     -0.8607719672     3.5619001437
C     2.109187722     -2.4784035448     2.76656308
C     -4.3073334776     1.837743693     0.9720378207
C     3.3081993624     -2.7107214982     1.9745800073
C     4.2426147164     -1.7113495188     1.7985063648
C     4.0075962267     -0.425610696     2.4130928215
C     2.8468357567     -0.1926775922     3.2027479909
C     2.4506025022     1.1500645749     3.3126644145
C     4.4588286715     -2.2641977416     -0.5900162435
C     3.4610792635     -3.2881300232     -0.4150231598
C     2.9406253964     -3.5531980912     0.8557434989
C     4.8679117775     -1.5022616899     0.5062534029
C     4.9052692166     0.5318614163     -0.8690327181
C     4.4540666734     -0.2569873724     -2.0073115267
C     4.1859819354     -1.6063412189     -1.8544911634
C     5.0602940111     -0.0758612942     0.3636395843
C     2.6028683322     2.7479077761     -2.4590205594
C     4.3005190049     1.8437762611     -0.9770499306
C     3.6393269975     1.8821653958     -2.2499038813
C     2.9576131162     2.1590214802     2.4361473257
C     4.5214118454     0.5847046176     1.5332322299
C     3.8957148625     1.860401256     1.4326691004
C     3.73888682     2.513955958     0.1357167409
C     2.5903225284     3.4140956785     -0.0848242656
C     2.114062701     3.5781889873     -1.3945138728


