92

 C     -1.0740231498     -3.9823187064     -1.5458905292
C     -2.0685748605     -3.162318146     -2.1018470236
C     -3.2687440021     -3.028170504     -1.3372446728
C     -4.1503465585     -1.9242239608     -1.5421311417
C     -3.8234994936     -0.9675435146     -2.4855338645
C     0.2859525789     -3.8587644879     -1.9325295434
C     0.7597661356     -2.764338013     -2.7101710214
C     -0.2253925119     -1.816458199     -3.2130888324
C     -1.6396432182     -2.0871601719     -2.9917592173
C     -2.5676255007     -1.0378061926     -3.1964173123
C     1.6112540368     -0.1194425621     -3.46866305
C     0.2012880839     -0.4695302801     -3.5482691563
C     -0.7763290216     0.6100353696     -3.5864400689
C     -2.1332399506     0.2942732837     -3.4273991955
C     1.9380955121     1.2534692737     -3.4445555732
C     2.1638116009     -2.3947634938     -2.5676505589
C     2.9616776877     -3.0941676039     -1.6088830834
C     2.6011662235     -1.0739893049     -2.9682759722
C     -4.8941557696     -0.1768843882     0.0178649639
C     -4.6751880373     0.82505157     -1.0299836485
C     -4.6666521929     -1.511728562     -0.2441820524
C     -4.1226365447     0.4319913084     -2.2425460668
C     -3.0773537743     1.2187859372     -2.8194487182
C     -4.24776639     2.0383870675     -0.4138503195
C     -3.2599842516     2.8725832465     -0.9900197855
C     -2.6451206287     2.428657027     -2.245185496
C     0.9534851223     2.2921297606     -3.3559530502
C     -0.4159383659     1.9962707922     -3.3469637073
C     -1.3202438952     2.8857765676     -2.6176872026
C     -0.7563721283     3.9287554128     -1.851600736
C     -3.4195609665     2.4972343582     1.8479565799
C     -4.5113353349     0.4026495338     1.2760891485
C     -4.2536238849     1.7944443513     1.0225015771
C     -2.6058024658     3.5552057002     1.323310698
C     -1.2983510764     4.3015130659     -0.5708277556
C     -2.4988500042     3.7455482627     -0.0953943653
C     -2.6878797463     1.8117964732     2.8852199045
C     -2.7427357677     0.4041053768     3.0188956702
C     -3.7366821215     -0.3260975932     2.2230216074
C     -3.5532305878     -1.7515817395     1.9749779592
C     -4.0350390078     -2.3275740001     0.7515572961
C     -2.4580572071     -2.3966022209     2.5892732409
C     -1.491856692     2.5450587833     3.1026332992
C     0.9084268458     2.577610466     3.1982077035
C     -0.2926043724     1.9013781992     3.502760568
C     -0.2834406602     0.448228182     3.6749619614
C     -1.5394048327     -0.2640459218     3.4913576561
C     -1.476855167     -1.6640491062     3.3336991495
C     -0.1823309962     4.5755941851     0.3110097803
C     -0.2416660485     4.1801929416     1.6762571145
C     -1.4653110789     3.6593555872     2.166880585
C     0.9505495282     3.7006593285     2.2648307657
C     -1.8053048163     -3.5380844833     1.9941246154
C     -2.1714973952     -3.9697971487     0.6870067316
C     -3.2806248643     -3.3457341856     0.0709458576
C     -1.1338043318     -4.4312833497     -0.1589568024
C     -0.4412320694     -3.5300593094     2.3976387431
C     0.5925704305     -4.0339427971     1.5816839163
C     0.1969565708     -4.5607487378     0.3105063859
C     2.344459773     -3.9711120744     -0.6462946638
C     1.0609789413     -4.3702638869     -0.828913038
C     3.3087340115     -1.5780892726     2.4907748683
C     2.1444047529     -2.3472726814     2.6561585934
C     1.9350337856     -3.4824438131     1.7537544258
C     2.8505819974     -3.6570929421     0.6845757201
C     2.1308012835     1.8833596681     3.1113282189
C     2.1936194164     0.4841791204     3.3373962812
C     0.9759745433     -0.2637614032     3.5886728168
C     0.9922579193     -1.6955441853     3.2980449536
C     -0.2346131644     -2.3547288514     3.2307792968
C     3.3196879056     -0.1629119716     2.7937018601
C     4.7354299635     -0.5100724663     0.9893735605
C     4.2362080847     -1.8009988719     1.4171172584
C     3.9627034442     -2.7927713597     0.4889113894
C     4.8852940141     -0.2297192812     -0.3608120171
C     2.9301213772     2.5201681473     2.0977983099
C     3.8763208575     1.8059108589     1.3557772428
C     4.1751016244     0.4952375069     1.8470461079
C     1.0386195013     4.4494554935     -0.4275154979
C     3.1458074602     3.1186952293     -0.6844463166
C     2.2246587302     3.9042019719     0.1492396909
C     2.1658243757     3.614867834     1.540687596
C     4.535668327     1.0727352379     -0.8868762923
C     4.0217133791     2.1096158813     -0.074256254
C     3.99785959     0.8399222045     -2.2044868565
C     3.1113232199     1.7307538516     -2.7427401116
C     2.7856074809     2.9349784805     -2.042747425
C     1.4989611097     3.3495760698     -2.5503341094
C     0.6628325936     4.1184283744     -1.7802786144
C     4.0601639917     -2.4767949301     -0.9369927212
C     4.4938222997     -1.2306040493     -1.3419319498
C     3.8152287948     -0.570236617     -2.4206162783


