92

 C     1.6474034554     -2.9899657884     -2.6675147048
C     2.8443265615     -2.723087268     -1.9757862824
C     3.0322863132     -3.4481778601     -0.7582343438
C     0.6698470024     -3.8926348991     -2.1741074416
C     0.7598810057     -4.4522755651     -0.8636621239
C     1.9883883788     -4.236583959     -0.1933744163
C     3.4781132619     -1.4260508869     -2.1676379586
C     4.3913767836     -0.9991108521     -1.1652633707
C     4.6345162912     0.3826469695     -0.9022617292
C     2.8039975855     -0.4024288511     -2.9612217881
C     3.2011603028     0.9349406252     -2.7802954441
C     4.0980891533     1.3350389033     -1.7318241608
C     0.9542691064     -1.9342587001     -3.4071557597
C     1.4484606056     -0.6306703084     -3.4728473469
C     0.4764687083     0.4485991064     -3.6076750112
C     0.9617115465     1.8046988086     -3.4135387356
C     2.2921115412     2.0192591153     -2.992812799
C     0.0369479879     2.8359757646     -3.1253195139
C     -1.7627445834     -3.7047337882     -2.0231120494
C     -0.6039694815     -3.4635232948     -2.7050531201
C     -0.4371222875     -2.2128125082     -3.4039268785
C     -1.4125393799     -1.1834445138     -3.3578006077
C     -0.9495287882     0.1768537437     -3.5035204337
C     -0.408897813     -4.3452035906     1.332562907
C     -0.4727064135     -4.5824952003     -0.0717366814
C     -1.7158423407     -4.2845754184     -0.6845965404
C     2.6558648353     3.784345838     0.6472165828
C     3.6574943269     2.8757024885     0.181371861
C     3.6753652718     2.6219792947     -1.215896269
C     2.6234204766     3.0829135044     -2.0634403129
C     0.3499367633     3.8874056463     -2.2055812828
C     1.6165648357     3.9564444381     -1.5842082834
C     1.6621777346     4.319628425     -0.2062499832
C     4.1192698696     1.8067113971     1.0884118355
C     4.6535044515     0.6142679462     0.5409016551
C     2.0167031261     3.5852432066     1.939670066
C     2.3930038436     2.5427348337     2.7365259433
C     3.4784912812     1.6616020021     2.3528951967
C     0.6241774442     3.9555664344     1.852630321
C     1.3927654004     1.7847792923     3.451033107
C     0.0119404228     2.076749085     3.3369281027
C     -0.3919840944     3.2264553693     2.5430550727
C     -3.1378795015     3.4886987742     -0.0004873339
C     -1.9838173624     3.9096536319     0.7100198995
C     -1.7334548518     3.3074048109     2.0227464031
C     -2.6728267673     2.370218238     2.5286685628
C     0.4140843014     4.4695791306     0.5507935934
C     -0.8575461499     4.2232112334     -1.4908591431
C     -0.8541670728     4.3979896285     -0.0748722054
C     3.1826016203     0.3874797319     2.9032735924
C     3.6368801509     -0.8088691201     2.317604332
C     4.4648470796     -0.6538317026     1.1625538988
C     4.4303485654     -1.6591127748     0.1202461445
C     3.7600418841     -2.8316541221     0.330878547
C     1.5474777637     -1.9382880257     3.1685980057
C     2.8445764811     -2.0189051511     2.4979226315
C     3.0460111622     -3.0679142736     1.5659804785
C     0.6142122591     -2.9663002283     2.9357639846
C     0.8433005419     -4.0001948749     1.9627952715
C     2.0177085731     -4.0107698428     1.2498747738
C     1.8669939086     0.4608037257     3.5521013994
C     -2.2496841359     1.1969148299     3.2325711786
C     -0.8928750967     0.9704542882     3.5444846032
C     -0.4227401637     -0.400950282     3.6211609072
C     1.0048903749     -0.6571195523     3.5947927789
C     -1.3462449918     -1.4808467944     3.2853815746
C     -0.7963267189     -2.7296019656     2.9735177943
C     -4.1890475767     0.6420353939     2.084232778
C     -3.1610778383     0.1170498363     2.9337303706
C     -2.710055789     -1.2112810232     2.8354585817
C     -4.7287783118     -0.1663335505     1.0942652211
C     -4.3380505825     -1.5350405372     1.007855085
C     -3.3578210988     -2.0944886318     1.8667336684
C     -4.5221272706     1.6683099055     -0.527043147
C     -4.0789475622     2.5511501494     0.5470447863
C     -3.8759933093     2.0303174016     1.8122358158
C     -4.8508215459     0.3608909665     -0.2611531979
C     -1.9209025245     3.5169906683     -2.1187585563
C     -3.7584815951     1.9849521439     -1.704496865
C     -3.0542071542     3.2054424503     -1.4107812265
C     -3.5695890809     -2.90392781     -0.8778001243
C     -2.8419251334     -2.758632193     -2.1044374164
C     -2.6933807228     -1.4863063105     -2.7209192777
C     -4.3330869764     -1.8757044134     -0.4057606414
C     -4.4498424551     -0.6679253338     -1.178462128
C     -3.5536648228     -0.4064341029     -2.2579528221
C     -3.1678121532     0.9703698582     -2.5109217472
C     -1.8796314575     1.259971911     -3.1639412346
C     -1.3657320573     2.5616928783     -3.0482021905
C     -1.4320544293     -3.6230602726     2.0119687476
C     -2.6463606498     -3.2757527104     1.3910205585
C     -2.799340249     -3.7160449725     0.0411360111


