92

 C     -0.0294962821     -3.5619634592     2.2089182915
C     -0.196896068     -2.5297547897     3.2340467334
C     -1.1828107109     -3.9852002113     1.4950362848
C     -1.4886907276     -2.0138835831     3.4744397281
C     0.6757392239     -0.2765254709     3.9852116029
C     0.9108627567     -1.6769399026     3.6138074425
C     2.1841353962     -2.0424961228     3.1349765421
C     1.7307437604     0.6482959081     3.8440520302
C     3.0084817171     0.2502782819     3.2999632389
C     3.2216992671     -1.0617908674     2.9507025291
C     -0.6616729723     0.2747656113     3.9892271298
C     -0.898675558     1.6760152736     3.6221809292
C     -1.7173832445     -0.6497410155     3.8513266052
C     -2.1743586967     2.0426416327     3.1506438074
C     2.3540328198     -3.0492104613     2.1217879985
C     1.254901005     -3.7540128944     1.568334101
C     1.3324364783     -4.1783675967     0.1677134496
C     3.4913257482     -2.6676188824     1.3254565968
C     3.535050225     -3.0122418073     -0.0047445292
C     2.4902511951     -3.8187123511     -0.5740204844
C     4.158676428     0.2769310286     -1.539950912
C     3.9926798238     -2.0454085601     -0.9735060479
C     4.3625674365     -0.7366499224     -0.5743599873
C     4.3395971068     -0.3609726593     0.8439480419
C     4.1109342732     1.0421236965     1.2181257178
C     3.9615272948     -1.3690819722     1.7605699584
C     3.520933332     1.3010692108     2.4746227067
C     0.1027961663     -4.3975833628     -0.5837388874
C     -1.1281015167     -4.3314957866     0.114476493
C     2.3929971058     -3.4195421032     -1.9493759908
C     1.1892545577     -3.5114837168     -2.6208660485
C     0.0614745753     -4.0770917177     -1.9754479103
C     3.2432264428     -2.2847983394     -2.1806047569
C     2.7976066167     -1.2085548513     -2.99354145
C     3.380266364     0.039030043     -2.7120487374
C     -1.1195444203     -3.481924558     -2.5713945083
C     -2.327574805     -3.3699373561     -1.8531605761
C     -2.3527746155     -3.8627927397     -0.5210973718
C     -3.1755650696     -2.27494652     -2.167783524
C     -0.6967609977     -2.4457072049     -3.4647398237
C     -0.7330620772     0.0055015872     -3.8357413955
C     -1.4416997887     -1.253817543     -3.6303117369
C     -2.7433595109     -1.2510521849     -3.0648657889
C     -0.7601900196     2.443767942     -3.4717555771
C     -1.479025124     1.2545534811     -3.595577562
C     1.4545914254     -1.2391943049     -3.6058365904
C     0.7363882363     -2.4286872421     -3.4810650963
C     2.7216152874     1.2652140691     -3.0758869615
C     1.4171032915     1.269249028     -3.6347136536
C     0.7074269371     0.0103941452     -3.8393967007
C     0.6730249629     2.460758911     -3.4626746532
C     -3.9915755173     -1.6491235815     -1.1598652784
C     -3.9405752171     -2.0612646333     0.1891780638
C     -3.1676493613     -3.23736767     0.4634178822
C     -2.4690913726     -3.3804429648     1.7201259261
C     -2.6255667653     -2.4294881933     2.6883449929
C     -4.3414189016     0.36628118     0.8667876927
C     -4.1108656371     -1.0376618332     1.2366345917
C     -3.5144980914     -1.2994353974     2.4895260305
C     -3.9587076421     1.3723223578     1.7837528734
C     -3.212845977     1.0623480186     2.9694202243
C     -2.9978543783     -0.2504992441     3.3146308148
C     -4.1726001722     -0.266245814     -1.5194287402
C     -4.0037165744     2.0548133906     -0.9485900939
C     -4.3715828507     0.7451550177     -0.5505296059
C     -2.8189125392     1.2225261059     -2.9765454216
C     -3.4001458351     -0.0256993492     -2.6949188174
C     -3.2603895641     2.2969262617     -2.1589309153
C     -2.4992699246     3.8272227933     -0.5527285568
C     -3.5411737371     3.0194631902     0.0200148939
C     -3.4907096181     2.6718422397     1.3491978203
C     -1.3377059067     4.1852090333     0.1839229692
C     -1.2530735279     3.7576916596     1.5831727601
C     -2.3493864954     3.0516428598     2.1406047622
C     -0.0776282138     4.0887849475     -1.9658774522
C     -1.2086805548     3.5246189681     -2.6068479361
C     -2.4089933069     3.4311496688     -1.9294645962
C     1.1225381408     4.3384651472     0.1185490152
C     -0.111890022     4.4061233498     -0.5732681641
C     3.1583702384     2.2870794831     -2.1787008943
C     2.3439656056     3.8712125381     -0.5242841409
C     2.3119982818     3.3813590542     -1.8573106566
C     1.1003433928     3.4949633158     -2.5691567728
C     2.6330216     2.4306651239     2.6804933701
C     2.4716361496     3.383783292     1.7152212957
C     3.1638163324     3.2435600743     0.4546720784
C     3.9353344141     2.0680852051     0.1738614654
C     3.9794792915     1.6589875371     -1.1763484972
C     0.0345611903     3.5642033742     2.2167971721
C     0.2071511094     2.5296869408     3.2387381042
C     1.5001416649     2.0132777953     3.4714148393
C     1.1842352405     3.9890509687     1.4980262045


