92

 C     -3.3605284311     0.9919124395     -2.7228274587
C     -2.8758725354     -0.2612157489     -3.1646420527
C     -3.4552452385     -1.4022480217     -2.5533158921
C     -2.724110603     -2.6344037233     -2.4681266355
C     -1.5315078411     -2.7647159299     -3.1261283328
C     -2.5391087805     2.1648744109     -2.8106714232
C     -0.3438195681     3.1391973694     -2.8538084699
C     -1.2011935314     2.0957858063     -3.2677303912
C     -0.6114144276     0.813720871     -3.6549737803
C     -1.5034863178     -0.3372255935     -3.699361861
C     -0.9178108647     -1.6066265771     -3.7721577972
C     -1.8276099512     -3.8572734296     -0.4986229596
C     -0.5974766289     -4.1108042131     -1.2557601711
C     -2.8931967338     -3.2074808583     -1.1594117271
C     -0.5087128271     -3.5896839998     -2.5769399539
C     0.7311749918     -3.0800970473     -3.1012488133
C     1.9099775145     -3.3046087513     -2.455058316
C     1.8984193225     -3.9746657247     -1.1734444869
C     0.6654446918     -4.3132903498     -0.5525991519
C     0.6590519937     -4.2611170609     0.8613644604
C     0.4903065829     -1.7908283742     -3.7245104747
C     1.3880068488     -0.7094380728     -3.5639656345
C     0.8269494111     0.628804887     -3.5658466019
C     -0.5587934545     -4.0200195878     1.5933918738
C     -1.7938791505     -3.7545114511     0.9624731363
C     -2.7721975928     -2.9139296681     1.6713827715
C     -0.1785177195     -3.359088753     2.8117065015
C     -1.0567760199     -2.499881397     3.4206590717
C     -2.383363976     -2.3498072193     2.9190578755
C     1.2174052998     -3.0428555933     2.7646374165
C     -0.577062362     -1.2363206665     3.9357166254
C     0.7589711741     -0.8384187938     3.77441678
C     1.716538862     -1.8037441964     3.2165471112
C     4.4755658188     -1.3181756919     0.7037598177
C     3.6017703496     -2.0513807433     1.5476041759
C     2.9775049932     -1.3427409292     2.6652034178
C     3.2951906932     0.0194626027     2.8673477027
C     1.7540172278     -3.6900582413     1.5946747589
C     3.009550832     -3.4585011136     -0.4324351707
C     2.9185246786     -3.2037843081     0.9628353519
C     -3.8073340513     -2.2052911194     0.9282448115
C     -3.8467084344     -2.3727746778     -0.4743139935
C     -2.8101230455     -1.0345879015     3.3160840201
C     -3.7783537478     -0.3709299738     2.6241126532
C     -4.3306961128     -0.9676167773     1.4271799294
C     -2.2565683292     2.9723170578     2.260379595
C     -3.7032376811     1.0573797398     2.4670097228
C     -2.5556028915     1.7781928108     2.9286071914
C     -1.6518005272     -0.3033280609     3.8527680749
C     2.2985177962     0.9790936307     3.2969319149
C     0.9965228187     0.5886956477     3.6644641317
C     -0.0827966495     1.538478677     3.4869444564
C     -1.4580995481     1.0607875863     3.5860284491
C     0.188940462     2.7857760591     2.7905760996
C     -0.9029850572     3.471151786     2.1981410702
C     -4.695361828     0.1088475413     0.5728422582
C     -4.599601602     -0.0201341983     -0.8371962758
C     -4.2310582836     -1.2908525088     -1.3506493862
C     -4.2215034463     1.1238490843     -1.5973608353
C     -4.3047950868     1.3603812566     1.2176181845
C     -2.9308227251     3.3579404147     1.0571799652
C     -3.8983680688     2.5018115519     0.4550332292
C     -3.9161243647     2.3893259171     -0.9628893788
C     -1.9927630115     4.0976556759     0.2592055489
C     -1.9710227151     3.9274414302     -1.1514491738
C     -2.9260812613     3.0547225575     -1.7488663114
C     -0.7131807171     4.0352755595     -1.7939235533
C     -0.7634409945     4.2303540269     0.9995609422
C     0.4934135772     4.3611049906     0.355728446
C     0.478929952     4.3831430564     -1.0671244485
C     3.7703656851     2.0931728398     1.9015407142
C     2.5670338788     2.2404240021     2.6772547586
C     1.5131807419     3.0969809877     2.2867715599
C     3.881215693     2.7578110121     0.6958386879
C     2.8436892587     3.6593628285     0.2818396771
C     1.6764199725     3.8808817968     1.0553544457
C     4.7935451865     0.7404763626     -0.3665462672
C     4.764716888     0.0649964499     0.9270130409
C     4.2159812215     0.7174027282     2.020278732
C     4.3576590942     2.0385026588     -0.4794560283
C     3.7070168105     -2.5256598278     -1.2851107881
C     4.4350626289     -0.2138963518     -1.3771875371
C     4.427440627     -1.5013039308     -0.732151704
C     1.5784891959     3.8408604538     -1.7957937573
C     1.0750246039     2.9631118691     -2.8251801321
C     1.6857974415     1.7270607787     -3.1030333232
C     2.7530057461     3.5460594306     -1.1568560582
C     3.5353338356     2.4237339774     -1.5962346059
C     2.9988959776     1.4602705682     -2.502093619
C     3.4898338491     0.0952845134     -2.4004472224
C     2.6947158772     -0.9891979232     -2.9580650246
C     2.9381346302     -2.3019326217     -2.4749141791


