92

 C     -3.5122402188     -2.1801279202     1.6699337999
C     -1.8627900419     -3.9017739374     1.4441657287
C     -2.9668559686     -3.2133301169     0.8746531357
C     -0.845797226     -4.5053665525     0.604893757
C     -0.9623112578     -4.4096951968     -0.7650463743
C     0.4352364191     -4.3788811274     1.2238614066
C     0.2053575188     -4.1082249113     -1.5521508186
C     1.4696532424     -3.8965393996     -0.9672806208
C     1.599480182     -4.059894715     0.4825027526
C     3.64294202     -2.6873457748     0.4191777881
C     2.6589728214     -3.3442841175     1.1803285385
C     2.4081554688     -2.8009643994     2.4768971458
C     -2.1189472531     -3.775427146     -1.3583391371
C     -3.1081480889     -3.1219357981     -0.5826347589
C     -3.8111059987     -1.9731808316     -1.1659841824
C     -1.6673769743     -3.2275782131     -2.6040791602
C     -2.3027156082     -2.1281378759     -3.1335424961
C     -3.4296944641     -1.5606871173     -2.4698596313
C     -0.2389028565     -3.3442169476     -2.6958569997
C     -1.5224346517     -1.0796338779     -3.7550311698
C     -0.1186580061     -1.1219403189     -3.7688565339
C     0.5502543935     -2.3213071102     -3.2523810962
C     3.5611372075     -2.6139630935     -1.0243019122
C     2.4037066067     -3.0558423698     -1.7051594566
C     1.9338130893     -2.2632685762     -2.8410956528
C     2.6471038772     -1.0974891496     -3.2013192306
C     -4.4115548595     -0.9537813297     -0.2968883606
C     -4.2567858648     -1.0824854442     1.0995197489
C     -3.4609130793     -0.1698538061     -2.8673030554
C     -4.0585613989     0.7680362123     -2.0854062844
C     -4.5810535407     0.3885460526     -0.7862026428
C     -1.5430632151     3.4717501038     -2.1506936031
C     -3.5198431283     2.1041176285     -2.0266094702
C     -2.2905953883     2.4223582725     -2.6960773767
C     -2.225828285     0.1471611025     -3.595323313
C     1.9633164501     0.1132931153     -3.5984283652
C     0.5665007791     0.1545305444     -3.7836406633
C     -0.1241648786     1.4050252542     -3.5497151181
C     -1.5791676872     1.3857575076     -3.4421702139
C     0.6202177058     2.5194550179     -2.9848418376
C     -0.106389619     3.5294004447     -2.3083960814
C     -4.4393774665     1.525269109     0.0434344439
C     -4.1459108889     1.3813951524     1.4287392069
C     -4.0909057565     0.0630351647     1.9494282462
C     -3.3236472752     2.3573296118     2.0448860182
C     -3.800686599     2.6000231901     -0.7325337625
C     -1.8834136563     4.0773391545     -0.8964949003
C     -2.9584740862     3.5695552877     -0.1131060762
C     -2.7801975905     3.4831297347     1.3013948488
C     -2.3672654946     1.9825549225     3.0332246349
C     -2.171582152     0.6301933434     3.4256920437
C     -3.139060645     -0.2899171387     2.967242623
C     -2.831487671     -1.6874051707     2.8214622966
C     -1.5979620021     -2.2102341759     3.2474561227
C     -1.2057580117     -3.4249216257     2.6247391105
C     0.1891017976     -3.7774247235     2.519759771
C     1.1314707311     -2.9714720733     3.1019227994
C     -0.8190344823     0.1587697141     3.7527029126
C     -0.5812322036     -1.276635353     3.7539409728
C     0.7496470743     -1.7197005446     3.7356236767
C     -1.2642136893     2.8844467801     2.9449492764
C     1.0970258158     3.2157617566     2.6484719224
C     0.0413850975     2.4614150778     3.2363801976
C     0.2956382916     1.072366633     3.6364559737
C     1.6535336344     0.5625731183     3.4816746572
C     1.8425077418     -0.8235453271     3.5739055189
C     -0.6569991845     4.5095189826     -0.2875029066
C     -0.4736914991     4.3792888656     1.1131739614
C     -1.5418226077     3.8392270589     1.8882557721
C     0.8436589568     4.1337249342     1.5761728956
C     2.9650452286     3.2817498862     1.2896482496
C     2.4038056346     2.6609604235     2.4623498312
C     2.7028601469     1.3325413871     2.8049673781
C     3.8823958264     2.6015995629     0.5239461114
C     4.3735969978     1.3259434264     0.9666286063
C     3.7732714097     0.6508226796     2.062934343
C     0.432431251     4.2371715152     -1.1960916931
C     1.7509530375     3.9960859368     -0.7362741898
C     1.9615409604     4.0830776108     0.6686445596
C     3.8928445702     0.7415491101     -2.4858581682
C     2.7016575764     1.2431540432     -3.1219763118
C     2.0361337385     2.4053802677     -2.6753644988
C     4.3910132892     1.3891913482     -1.3748728389
C     3.7645464756     2.5980073068     -0.9167163746
C     2.6135812948     3.1407620651     -1.5427647031
C     4.7657477339     -0.7683146417     -0.2539048322
C     4.2904999035     -1.4535699839     -1.4434433605
C     3.8438419771     -0.7098718272     -2.5253296068
C     4.8066521423     0.6105449297     -0.2106463541
C     2.8911039634     -1.5080304706     2.8402300861
C     3.8122918893     -0.8043112392     2.0424981863
C     4.2957205514     -1.4965088778     0.890415138


