92

 C     1.3849174795     -4.0415666097     -1.3039770131
C     2.3024393002     -3.1739622019     -1.9162156377
C     3.4506343488     -2.8193213075     -1.1351107742
C     4.1433006002     -1.5796890484     -1.3726361426
C     3.7516545638     -0.7726892457     -2.3997248894
C     0.0140178175     -4.0729405061     -1.7073437633
C     -0.5249382457     -3.1500030182     -2.6302749621
C     0.3825301961     -2.1805448959     -3.2391312946
C     1.7967435496     -2.2534505822     -2.9316534211
C     2.5912345523     -1.113830842     -3.2155646918
C     -1.5546339847     -0.7094884024     -3.6910940347
C     -0.158532648     -0.9235937871     -3.7400752059
C     -2.4581631124     -1.6824971478     -3.0889695569
C     -1.9553819671     -2.8684438618     -2.5239019339
C     -2.7172474262     -3.3903100998     -1.4328984108
C     2.318095856     2.4264175631     -2.9668654892
C     3.8438507674     0.6706796301     -2.284719629
C     2.8724195313     1.192587864     -3.1892435411
C     0.6544888362     0.269607469     -3.8675471442
C     2.0430748186     0.1064608479     -3.6805994858
C     0.9201297233     2.6567783842     -3.2471106305
C     0.0741218465     1.6027217017     -3.6694003345
C     2.7077370879     3.1829324457     -1.8156047005
C     3.5252311291     2.6185323899     -0.8052066066
C     4.1306040688     1.3061525293     -1.0517711947
C     4.4907320868     0.4323754539     0.0782348232
C     4.5442347992     -0.9902230997     -0.1122507188
C     4.200956497     0.8711850077     1.3846268865
C     1.5804442749     4.0377972289     -1.5118253721
C     1.3482724918     4.4485099624     -0.2243666062
C     2.1936759448     3.9490313715     0.8411656687
C     3.2470598977     3.0372048707     0.5721699844
C     3.5579019347     2.1416126875     1.6220081721
C     -2.1218010656     0.5812118847     -3.5576480327
C     -1.329673911     1.7512224416     -3.3921089296
C     -0.8768342188     3.7109127149     -1.8853630266
C     0.4627265452     3.6743849675     -2.3571327307
C     3.7754185268     -0.0453500178     2.4087773189
C     3.7000969444     -1.4429602174     2.1664247937
C     4.1488310852     -1.9077884184     0.8950984297
C     2.6682536267     -2.1597341063     2.820397458
C     2.7799374413     0.6208105543     3.1929725363
C     -0.9058521322     2.6762195525     3.2388705515
C     0.3302961431     2.0655862953     3.4691793041
C     0.357172652     0.6231280626     3.7599578907
C     1.6402922314     -0.0624489044     3.6796034783
C     1.6597889836     -1.476618761     3.5607983347
C     2.6960647487     1.9859334299     2.746288421
C     1.3623195267     3.8221395959     2.0036631584
C     1.5147474995     2.7319886906     2.9013231596
C     2.0689634827     -3.3432638642     2.2264161173
C     2.4628460679     -3.7724827066     0.9226272508
C     3.5010248723     -3.0559105271     0.2627078791
C     1.4637961643     -4.3569140411     0.1086757658
C     0.7155113546     -3.4030234869     2.6317414024
C     -0.2981591761     -3.9850254692     1.8265275715
C     0.1286639404     -4.5449134365     0.5876485543
C     -2.0564483175     -4.1529155151     -0.3938745102
C     -0.7451892675     -4.5086163357     -0.5544914051
C     -3.100624111     -1.6028855796     2.601117239
C     -1.9131164181     -2.3258995471     2.8166515141
C     -1.656029326     -3.4861138746     1.9685948323
C     -2.5574395898     -3.7390335734     0.8914346888
C     -2.1178161971     1.9258584738     3.1991449287
C     -2.1149543395     0.5258960526     3.431150477
C     -0.8579252635     -0.1511397471     3.6983324957
C     -0.8024980455     -1.6075298224     3.4611635551
C     0.4455989417     -2.222904269     3.4400330127
C     -3.1970556636     -0.2010732597     2.8888671614
C     -4.5102272094     -0.6097264086     1.0075524618
C     -3.9709260691     -1.8661480683     1.4871008429
C     -3.6633421517     -2.8813261593     0.6168842889
C     -4.4773972196     1.0333689076     -0.772699816
C     -4.6097714297     -0.3366492684     -0.381117701
C     -2.9857809698     2.5237433779     2.2271691808
C     -4.1411087255     2.0516886001     0.1468400609
C     -3.9276530935     1.7485129909     1.523018833
C     -4.0981215358     0.3991823472     1.9323436522
C     0.0472096308     4.3003224893     1.655184736
C     -3.2890174995     3.0397681835     -0.5268790523
C     -2.3242207335     3.8021978336     0.1796915532
C     -2.27378913     3.6140624907     1.5939596904
C     -1.0537172295     3.7804637295     2.3001216752
C     -3.3780534129     0.413294474     -2.8677944554
C     -3.830561946     1.391253987     -2.0291711628
C     -3.0645869417     2.6018457434     -1.8518147293
C     -1.8105494785     2.8027048357     -2.5095922373
C     -1.1237825043     4.2195196073     -0.5332777419
C     -0.0005439752     4.5955811171     0.2521537121
C     -3.7657303479     -2.643895683     -0.8250393349
C     -4.1794966511     -1.3852256303     -1.3254930363
C     -3.573291728     -0.990119484     -2.5496544158


