92

 C     -0.7469712959     4.1847623247     -0.4772192393
C     -2.0353429268     4.0558595668     0.0793845805
C     -3.1440508628     3.5542169662     -0.6840732305
C     -0.5273629155     3.7339404756     -1.8469596229
C     -1.6060589512     3.1502351474     -2.5404827046
C     -2.9209126669     3.0846415631     -1.9751808866
C     3.1785713437     3.2014242838     -1.5634314658
C     1.8820179732     3.8167906734     -1.4850036836
C     0.8069861032     3.388994834     -2.2900588421
C     3.3710053336     2.1251000011     -2.4161061215
C     2.2776639132     1.6444223088     -3.2168179621
C     1.0064370791     2.2452275261     -3.1760040278
C     -4.6402430701     1.6550048254     -0.2159940833
C     -4.3633356258     1.1394349304     -1.5452138821
C     -4.0313002665     2.8309551417     0.2068443871
C     -3.5311782329     1.8430958266     -2.4024196402
C     -2.5718435964     1.1355634623     -3.2065551741
C     -4.2477009932     -0.2910239182     -1.4655098577
C     -3.3431770239     -1.0091185583     -2.2736772383
C     -2.4563347178     -0.2656668149     -3.1645187375
C     -0.1266223746     1.4233449482     -3.5562026812
C     -1.4062779275     1.9607380184     -3.3383254889
C     2.4093163512     0.2217587072     -3.3421844784
C     1.3038408898     -0.6187208945     -3.5549571666
C     -0.0011779937     -0.0109418106     -3.7147309483
C     -1.1798539557     -0.8365147436     -3.5498840823
C     -1.0044693705     -2.2131624035     -3.3309624893
C     -3.541449761     1.8154766207     2.3920360566
C     -4.2030304732     0.6004887139     1.964716351
C     -3.4487978066     2.9018278611     1.5353944269
C     -4.7168665575     0.5123688042     0.6742366902
C     -4.4870197928     -0.6818812577     -0.0904054812
C     -3.496424585     -0.5112332252     2.5282558965
C     -3.3509288006     -1.7285200106     1.8337131084
C     -3.847484015     -1.808523104     0.4645420482
C     -1.9310458489     -2.9798037716     -2.5278404717
C     -2.9727850437     -2.336553108     -1.8305173414
C     -3.2471669386     -2.7503312574     -0.4589721585
C     -2.4888300628     -3.8009139655     0.0955760034
C     -1.1046302605     3.3093786171     2.2608647516
C     -1.1981336991     2.1553421375     3.1510446452
C     -2.2143633133     3.6336303847     1.4544750163
C     -2.4086754154     1.4403391982     3.1942651248
C     -2.4089300773     0.0120858587     3.3249243121
C     -1.2309004608     -0.7223901172     3.5407364051
C     0.0126690378     0.0034672353     3.6980373033
C     0.0056568171     1.4425788609     3.5339934474
C     1.2304630307     2.0945486511     3.3139238668
C     1.2143122956     -2.0984751316     3.3222284864
C     1.2623267586     -0.7107584952     3.5360217667
C     -2.0275176727     -3.7430267037     1.4684640924
C     -2.2981307873     -2.618927976     2.2747506744
C     -1.2479569956     -2.1217307096     3.1594977205
C     -0.0232603392     -2.8125273946     3.1980804592
C     1.3201135237     3.294449647     2.5117497156
C     0.1924231282     3.7738337132     1.8161986236
C     0.3698902337     4.2379299164     0.4447994157
C     2.6355035284     3.3479020095     1.9465013692
C     2.8147359808     3.8312146612     0.6536519149
C     1.6647504882     4.2260148723     -0.111532336
C     3.3573515683     2.1694030937     2.3783033529
C     3.7649163003     3.1894096705     -0.2347359617
C     4.4793549315     2.0760215484     0.1923441446
C     4.2509504624     1.5421504938     1.5235764281
C     2.481056671     -0.0263942093     3.1484911388
C     2.4670896398     1.3796573846     3.1852534125
C     4.267326135     0.1068759019     1.4491518783
C     3.4327020404     -0.6884193589     2.2601926741
C     1.5957279073     -3.9482112093     1.9627485471
C     2.2077308508     -2.7797131206     2.5220346636
C     3.1860365262     -2.0459839551     1.8220887127
C     1.923224635     -4.350846436     0.671289589
C     2.8391215693     -3.555694508     -0.0985189066
C     3.4975543939     -2.4378285414     0.4520284783
C     -0.4295617943     -4.9170374759     0.2151890715
C     -0.776266464     -4.4462265011     1.5447086684
C     0.2146772593     -3.9821545016     2.3962820972
C     0.8913883633     -4.8569229496     -0.2136906521
C     0.1640743951     -3.9933792093     -2.3980740782
C     -1.2143192646     -4.0850488995     -1.9643881125
C     -1.503543876     -4.511344845     -0.6714149649
C     1.1934001927     -4.3610847154     -1.5449498567
C     2.5407597668     -2.404324057     -2.2819962661
C     1.4494971479     -2.0091715242     -3.1684933757
C     0.2935393791     -2.8098473141     -3.2042813551
C     2.3747110371     -3.5456093939     -1.4715946551
C     4.5420894392     -0.2655158687     0.0754915978
C     4.6610698377     0.9420138344     -0.6936432967
C     4.141480977     0.9777266341     -1.9843962102
C     4.0088464546     -1.4482094561     -0.475102391
C     3.5070973704     -1.4191920977     -1.8444263831
C     3.5401458121     -0.1963123361     -2.5435751255


