92

 C     -4.3654454827     -1.6216342121     -0.151806501
C     -3.7001822107     -2.8697015032     -0.200764267
C     -4.5620346378     1.2538244335     -0.1623500105
C     -4.4515574431     0.5746215363     -1.3524197676
C     -4.3532576622     -0.8705333984     -1.3593124658
C     -1.7548794172     2.4936926744     -2.9827335885
C     -3.6222258322     1.1136489634     -2.3978897895
C     -2.931671695     2.3525615336     -2.2312839612
C     -3.0549324014     3.0959625086     -0.9705137406
C     -1.9558715903     3.9602807984     -0.5331453033
C     -3.9050715605     2.5365511668     0.0132103332
C     -1.7641625339     4.1287001455     0.8624478742
C     -3.4854668584     -1.2155384395     -2.434130664
C     -2.6818025018     -2.3720432545     -2.4161769819
C     -2.9239667536     -3.2626185051     -1.33078268
C     -1.875537997     -4.1455393673     -0.8608051176
C     -0.7012966175     -4.227993665     -1.5659012815
C     -3.013884709     0.0017537194     -3.0563176775
C     -1.1569965329     1.3798079609     -3.6626813961
C     -1.7091293799     0.0796601229     -3.5986478355
C     -0.8187388712     -1.067133103     -3.5710864485
C     -1.3532496607     -2.3309333715     -3.0488212343
C     -0.4498093186     -3.3405579575     -2.6919924236
C     1.8004425837     -3.9654179863     1.12541303
C     0.5725596457     -4.3799409304     0.5514671733
C     0.5256454958     -4.4456042916     -0.8738381484
C     1.5725877235     -3.8738188018     -1.6815149925
C     3.464666818     -2.3733450049     -1.7591952565
C     2.7863171561     -3.4389926091     -1.1124595244
C     2.9385988127     -3.5553208356     0.3006073689
C     0.2490869671     1.585142957     -3.6887237121
C     1.1541950315     0.5188566168     -3.6382676105
C     0.6099043216     -0.8481389517     -3.6275061347
C     1.5034547498     -1.9250851094     -3.2365075441
C     0.9573217037     -3.1467811505     -2.7595909827
C     2.8188184188     -1.6254341889     -2.8238375335
C     -0.6541506417     -4.129169793     1.297470629
C     -1.8754517549     -4.169574024     0.5732202557
C     -3.03497056     -3.4201850522     0.9779320562
C     -0.6013885394     -3.296825588     2.5019644593
C     -1.7798895829     -2.6148276582     2.9006129228
C     -3.0049371623     -2.6938531366     2.1419905144
C     3.0521976634     -2.4417965205     2.3034977436
C     1.8419205839     -3.2267363243     2.3328274671
C     0.6505309172     -2.7498623624     2.9628904475
C     3.0912194884     -1.231762455     2.9338714917
C     1.9138791426     -0.7259727899     3.5982635239
C     0.6866652454     -1.4377221389     3.5930610563
C     3.8458794307     -0.1244775211     2.3796073582
C     4.6044105173     0.9619710185     0.3764898157
C     4.4838282487     -0.2433234529     1.1107272792
C     3.7192011372     -2.6196517455     1.022370398
C     4.309789781     -1.4849074308     -1.0354612988
C     4.377341754     -1.5238245757     0.3846647173
C     -4.5315705616     0.5221727927     1.0945267758
C     -4.4100569616     -0.8923342523     1.1218046692
C     -3.7023922738     -1.4295824237     2.2292957202
C     -2.9290980941     -0.596380307     3.0913503877
C     -2.9293645503     0.8062547228     2.9791363849
C     -3.8532050382     1.3471827795     2.0418482067
C     -2.4976270217     3.3564747441     1.8160580188
C     -3.5729465986     2.6120745055     1.4054706323
C     -0.5126410382     -0.6433711134     3.7267876065
C     -1.7356743704     -1.3101673884     3.4762757157
C     1.9594810949     0.6801154213     3.508224106
C     0.7973468405     1.4812112108     3.4825742768
C     -0.4796396427     0.8124766433     3.651349615
C     -1.7022888376     1.5314689312     3.3115357829
C     -1.5728778026     2.8409177138     2.8172725412
C     2.0888383383     3.1587813881     2.0753997543
C     0.9059566943     2.7948284464     2.8585917892
C     -0.3034586398     3.455956133     2.5781723126
C     1.9214092187     4.0577312976     0.993453485
C     3.6539873062     2.9586572293     -0.3390420262
C     4.0267115518     2.1820649544     0.8281320061
C     3.2168959923     2.2398861404     2.0054029757
C     3.1735849413     1.0607353477     2.7731942354
C     2.6389079339     3.872378885     -0.2461636175
C     4.291093093     -0.2200450599     -1.7452929267
C     3.812021296     2.1411514169     -1.5158979768
C     4.4917591381     0.9621665733     -1.0823606367
C     0.5308685262     2.8717863592     -3.0783395796
C     1.7177059911     4.0352483447     -1.3500105672
C     1.7641694654     3.1242036968     -2.4450745926
C     2.7980976286     2.1007627374     -2.5152072177
C     2.5009899435     0.8146758675     -3.1408736674
C     3.3154507869     -0.2857312177     -2.7989336752
C     -0.449310889     4.3168382399     1.4291375087
C     0.6316322504     4.5558361545     0.623261537
C     0.4739847516     4.4990663617     -0.818353131
C     -0.7762668233     4.139199099     -1.3897447295
C     -0.6996970683     3.3994206743     -2.5972037413


