92

 C     2.5327698467     -3.1579054215     1.5893502608
C     3.0686531713     -2.0631474513     2.3017367864
C     4.1910453374     -1.4205580253     1.7034501727
C     4.5075189821     -0.0450412514     2.010483224
C     3.6953167431     0.662208531     2.8776887667
C     1.1730064495     -3.5590319786     1.7586165238
C     0.2942509124     -2.8637092622     2.5972589176
C     0.7919398642     -1.6858803312     3.3018504425
C     2.1782012048     -1.3128023502     3.1787554113
C     2.53120651     0.0351116723     3.471315738
C     -1.5379957729     -0.9931585721     3.6382373761
C     -0.1714409973     -0.6790807813     3.6944996279
C     -2.8998863147     -3.3993395771     0.6714484269
C     -1.5903562962     -3.6570869558     1.1064640845
C     -1.1291048555     -3.0558747866     2.358061291
C     -2.0198823681     -2.2265144051     3.0524680735
C     4.672396016     1.8960390714     0.5118366134
C     3.8105153704     2.6359920888     1.4118813143
C     5.0312069709     0.5867994568     0.8128898065
C     3.3602318656     2.0432548732     2.5895502088
C     2.0177350523     2.2660626659     3.0249269736
C     2.8936402226     3.4132927314     0.6299677942
C     1.5848564921     3.6757003843     1.0644428957
C     1.1257595069     3.0879407055     2.3232014073
C     0.1704131988     0.725615666     3.6866788294
C     1.5368658741     1.0390596902     3.6247094148
C     -2.5326071537     0.0090969428     3.4757997285
C     -2.1801165866     1.3537949635     3.1682049173
C     -0.7936501986     1.7281582415     3.2849144727
C     -0.2971824824     2.8983633056     2.5668878863
C     -1.1773823202     3.5846670281     1.7223510023
C     4.7159655546     -0.0847414508     -1.5328914512
C     4.3117175156     1.2709686659     -1.842816858
C     5.0420061343     -0.4254295863     -0.2273852497
C     4.2798569215     2.239655653     -0.8421547115
C     3.1793929489     3.1496399082     -0.7809331104
C     3.2450484083     1.1996028688     -2.7945950896
C     2.1597822881     2.0871558271     -2.7672360499
C     2.1415837668     3.1219261374     -1.7308778141
C     -0.7219482565     4.1546043497     0.4600577392
C     0.6132704964     4.0379979276     0.0515475978
C     0.8897210184     3.7448550083     -1.3528869773
C     -0.1981659967     3.5695733496     -2.2194785968
C     2.3791859178     -2.8241810773     -2.4576650098
C     3.5296175834     -2.2644169677     -1.8594693009
C     3.9265215505     -0.9851989917     -2.3456201549
C     3.0438052108     -0.192727015     -3.139940649
C     -0.196069352     2.4880374937     -3.1932851166
C     0.9019604805     1.6500809551     -3.3697477261
C     0.6655303155     0.2418045383     -3.6959610073
C     1.7762921125     -0.6741505018     -3.55395838
C     1.5230016025     -2.0427223668     -3.309661842
C     3.830494489     -2.6052637859     -0.4598757077
C     4.5444403567     -1.6658731835     0.3362281906
C     1.5359129157     -3.7580848394     -1.7536804414
C     1.8009764444     -4.0558041511     -0.4198274606
C     2.9285971199     -3.4468235821     0.23505876
C     0.1870264896     -3.5861768939     -2.1814613892
C     0.7154125299     -4.1424619077     0.5032878894
C     -0.6205066584     -4.0302279458     0.0958440709
C     -0.8993694669     -3.7521511367     -1.311175075
C     -3.2571915206     -1.222475952     -2.7760353896
C     -2.1718713517     -2.1096939054     -2.7410275279
C     -2.1518847383     -3.1332973825     -1.6936711004
C     -3.188061778     -3.1508189562     -0.7417041889
C     -1.5360605035     2.0141272397     -3.3287774569
C     -1.7897572136     0.6430179164     -3.5579567071
C     -0.6792325506     -0.2744167976     -3.6920417207
C     -0.9150897487     -1.6791138567     -3.3503480031
C     0.1832491276     -2.5151411376     -3.1668000864
C     -3.0565536965     0.1660710592     -3.1366289456
C     -4.7259533764     0.0753309171     -1.5256470326
C     -4.3222250735     -1.2836270738     -1.8217178235
C     -4.2886374393     -2.2415336978     -0.8107869858
C     -5.0497549709     0.4299939087     -0.2233092948
C     -2.3907891856     2.8046808266     -2.4837372445
C     -3.54018715     2.2513699568     -1.8776025521
C     -3.9379125642     0.9670184115     -2.3493332209
C     -2.9355833861     3.4561517102     0.2030981362
C     -1.8090944384     4.0580679779     -0.4602117699
C     -1.5463182906     3.7460684473     -1.7912508417
C     -4.5512338218     1.6764020873     0.3261224564
C     -3.838665135     2.6072005615     -0.4812281902
C     -3.6977294866     -0.6243152142     2.8909282617
C     -4.5114250905     0.0736073118     2.0175876952
C     -4.1954912438     1.4457516236     1.6952866138
C     -3.0720797368     2.0947056713     2.28472484
C     -2.5374309778     3.1817618484     1.5597274434
C     -4.6788554082     -1.8834217209     0.5401158913
C     -3.8154246612     -2.613693966     1.4465587938
C     -3.3631272876     -2.0083740821     2.6170334164
C     -5.0371619883     -0.5710279003     0.827735067


