92

 C     -1.8653945182     -3.6345219915     -1.5919624982
C     -2.6049140585     -2.6322225401     -2.2648521172
C     -3.7947321874     -2.1885422693     -1.6271318927
C     -4.3555894346     -0.8955607791     -1.9100834953
C     -3.7374913534     -0.0597813095     -2.8219286479
C     -0.4583949223     -3.7901906715     -1.8006929649
C     0.2755012774     -2.9181345784     -2.6096462484
C     -0.4458097911     -1.8227331148     -3.2718828734
C     -1.8750398932     -1.7196080327     -3.1376151622
C     -2.4786197317     -0.4563593023     -3.4174521401
C     1.7014459908     -0.6878400407     -3.5872674478
C     0.3020348873     -0.6427095207     -3.6463406395
C     3.5711076068     -2.9569518649     -0.761291129
C     2.3398154863     -3.4796710693     -1.2210475488
C     1.7259130733     -2.8595630598     -2.4003559869
C     2.4202703082     -1.823714904     -3.0371359966
C     -4.8163726159     1.0034328237     -0.42124564
C     -4.2466163547     1.8958626034     -1.415356586
C     -4.8843398772     -0.3522372516     -0.6705326006
C     -3.6918668062     1.3657492532     -2.575770652
C     -2.4197581316     1.8502061745     -3.0222722247
C     -3.5720186128     2.9631077672     -0.7371311137
C     -2.3404406179     3.4898994961     -1.1914441381
C     -1.7258012424     2.8803336475     -2.3758545023
C     -0.3011366456     0.6746763552     -3.6406624395
C     -1.7005841094     0.7192813312     -3.5820626721
C     2.4793774878     0.4862800236     -3.4117072866
C     1.8756222543     1.7469935949     -3.1210000574
C     0.4464770201     1.8513134693     -3.2552350915
C     -0.275255943     2.9407633779     -2.5837138856
C     0.4581360348     3.8055683577     -1.7665593779
C     -2.8869081399     3.2263939919     1.5998402618
C     -4.4162620362     1.4836908635     0.8867093912
C     -3.7987641642     2.7598567426     0.6849877072
C     -1.778347729     4.0286807191     1.1724772747
C     -0.1190047704     4.3600001057     -0.5488618898
C     -1.4790292333     4.1422028785     -0.2082062967
C     -2.4514823018     2.3818512998     2.6754052581
C     -2.8762617272     1.0525504593     2.7878178095
C     -3.9498504968     0.5926613655     1.8917950985
C     -4.1112275502     -0.8330094689     1.6404365621
C     -4.5889163587     -1.2874349327     0.378759264
C     -3.2881530425     -1.7311674125     2.3686124979
C     -1.1103472842     2.7915699502     3.0190173006
C     1.2067637164     2.224118432     3.3293851816
C     -0.1558290377     1.8745276836     3.5122696391
C     -0.5226088751     0.4823889303     3.6623884288
C     -1.9230215771     0.1014195907     3.3759457447
C     -2.2216703225     -1.251064085     3.2404532724
C     0.9085445345     4.4154477154     0.4206474466
C     0.6351787263     4.0610532646     1.7824864834
C     -0.722781561     3.852556405     2.1356435229
C     1.6023116292     3.3032796155     2.4808639196
C     -2.8805580277     -2.9807605407     1.8519543998
C     -3.1581869174     -3.3281921258     0.4916648181
C     -4.0196874126     -2.4658758935     -0.2319195127
C     -2.1502224276     -4.0037428109     -0.2429816867
C     -1.6052166507     -3.3257857719     2.4503220192
C     0.7200944179     -3.871974833     2.1016691022
C     -0.6376492047     -4.0773123827     1.7458205411
C     -0.9101680918     -4.4195518343     0.3807062958
C     2.2182800945     1.2215951507     3.2528479123
C     1.9195425799     -0.1320383977     3.3760974064
C     0.5189536326     -0.515543583     3.6582654659
C     0.1522745495     -1.9062931293     3.4955207662
C     -1.2102009361     -2.2542375287     3.3086819374
C     1.1071021231     -2.8189025369     2.9947039143
C     0.1179842867     -4.3554667003     -0.5876286691
C     1.7762549671     -4.0395035405     1.1376261158
C     1.4777959889     -4.1407149824     -0.2442000691
C     2.8845420281     -3.2410583779     1.5728109073
C     4.4143338354     -1.4920700521     0.8761971003
C     3.7969674987     -2.7663853131     0.6627238487
C     3.2853058231     1.7094505145     2.385986467
C     4.58731267     1.2834735895     0.3930686664
C     4.108836114     0.8178209621     1.6503474618
C     3.947298001     -0.6100345348     1.8888959301
C     2.8731508679     -1.0778911359     2.7801142535
C     2.448442499     -2.4061408573     2.6555934714
C     2.1489900311     4.0052191186     -0.205944948
C     4.0184628518     2.4673164547     -0.2074354288
C     3.1565048697     3.3231499882     0.5232761143
C     2.8780309793     2.9636014047     1.8802431107
C     3.7378783144     0.084405774     -2.8189624059
C     4.3554121383     0.9120235887     -1.8993203272
C     3.7943780789     2.2024379277     -1.6051992687
C     2.6049549448     2.6517900558     -2.2396794772
C     1.8650083601     3.6480479967     -1.558344243
C     4.81525581     -1.0001700453     -0.4271754731
C     4.2461243427     -1.8837017444     -1.4295576779
C     3.692098043     -1.343260021     -2.5855458301
C     4.8833819487     0.3576660581     -0.6643318301


