92

 C     -4.3986567365     -2.1153876544     0.1275083494
C     -4.8103271826     -0.8363705302     0.4417335149
C     -4.3719296054     -0.2067017089     1.6717067152
C     -2.5638899273     1.4202298082     3.0834796073
C     -2.4361428026     0.0372371306     3.2099790361
C     -3.4186238702     -0.8176482556     2.5190669755
C     -1.8773780244     -2.7069500897     2.7703057195
C     -3.0762079942     -2.2030953746     2.2391126041
C     -3.5525201754     -2.833223103     1.048707725
C     3.2000101611     2.7468363018     1.8171426817
C     2.3045418047     2.0916975424     2.7145955651
C     0.9854394967     2.6675078654     2.8993652349
C     -0.1093536281     1.8301582197     3.3693040543
C     -1.4284996798     2.3006639773     3.1818730564
C     1.3942336909     -0.1801438384     3.4049976198
C     0.0759344342     0.3964152426     3.5744868361
C     -1.1074549141     -0.462188864     3.5640795075
C     -0.9178895953     -1.8486293818     3.460869514
C     -4.4438126045     -0.1093104042     -1.8736979225
C     -3.9694896375     -1.4406864715     -2.1921343318
C     -4.8635839219     0.1918272786     -0.5904152375
C     -3.9734956645     -2.4370442896     -1.2189090576
C     -2.8790734765     -3.3453584269     -1.12832724
C     -2.8365966654     -1.3055705665     -3.0474461327
C     -1.7242853158     -2.1608442905     -2.9598680006
C     -1.7635165741     -3.2561289323     -1.9856878836
C     0.9322454802     -4.4825509946     0.3577445288
C     -0.3746792835     -4.3693619267     -0.1658503881
C     -0.5272092429     -3.8927427774     -1.5432970365
C     0.6312851515     -3.5837577366     -2.2681972599
C     -2.6925158394     -3.6803000056     0.2841751112
C     -1.1474195835     -3.7389398067     2.122912216
C     -1.4581221851     -4.1228495885     0.780887386
C     -2.1513831281     2.7341087468     -2.5220176858
C     -3.3125712569     2.1193240979     -2.0190632018
C     -3.6284041635     0.846462505     -2.5829461553
C     -2.6588113863     0.1070067588     -3.3308386697
C     0.6759819031     -2.439507499     -3.1680384413
C     -0.4360743189     -1.6427537201     -3.4198512239
C     -0.2291018208     -0.2141655459     -3.6813811946
C     -1.3880711255     0.6456201698     -3.6227086963
C     -1.2186914416     2.0190396403     -3.3361777996
C     -3.7425418208     2.4396806111     -0.6511730368
C     -4.5228699723     1.4642097636     0.0142295562
C     -1.4183026404     3.7282479727     -1.7761028832
C     -1.7845468922     4.0509352968     -0.4442759833
C     -2.9348388357     3.3641413114     0.154213186
C     -0.7218008468     4.5124965346     0.3822995208
C     -0.0556019709     3.6771767125     -2.1900071905
C     1.0071516562     4.0459332809     -1.3444932766
C     0.6313650155     4.557391531     -0.0705298957
C     2.7149735202     3.743573288     0.8929627335
C     1.4789711896     4.2819160973     1.0705986816
C     3.5079418503     1.4021414182     -2.350639411
C     2.4209960669     2.2818865395     -2.48748419
C     2.2992872719     3.3871637864     -1.5294812492
C     3.2058107911     3.4198718717     -0.4399575792
C     1.9952853932     -1.8967514001     -3.1381939856
C     2.2103408218     -0.5068871621     -3.303265853
C     1.0838158944     0.3668479816     -3.5428692691
C     1.2305798123     1.7883287898     -3.1958070939
C     0.0780641682     2.5697857314     -3.1183272223
C     3.3976829533     0.0065532809     -2.7300848466
C     -0.6790210014     4.1437864421     1.787099442
C     -1.7096630236     3.427931942     2.3300699261
C     -2.8992607882     3.1576002156     1.5571833747
C     -3.4978506925     2.008420094     2.154452253
C     -4.3367497935     1.204632745     1.4190223598
C     0.6624168924     3.8480423183     2.1710761033
C     4.7979860742     0.1262312364     -0.8871180791
C     4.4248745562     1.4776673015     -1.2500223111
C     4.2208060023     2.4362061962     -0.2690548769
C     4.8592404067     -0.2365246344     0.4518296832
C     2.7933281377     -2.6865724449     -2.2453375852
C     3.8199728393     -2.1013759476     -1.473176052
C     4.1957471741     -0.7775856149     -1.8416102029
C     3.0701734851     -3.492748333     0.442840567
C     2.0930281863     -4.1542701646     -0.4086996306
C     1.9446742488     -3.7297044599     -1.719231955
C     4.3808137214     -1.5270513038     0.8728587897
C     3.9451489492     -2.5025901524     -0.0643664308
C     0.2199838965     -3.6256709752     2.5448039826
C     3.6915620516     -1.3428875204     2.1163895207
C     2.6601415431     -2.1967691515     2.5267540502
C     2.4880006711     -3.3767196207     1.7434235657
C     1.2214868497     -4.0568040632     1.7198133141
C     4.2356854478     2.0368929625     1.1356559684
C     4.4965079539     0.7280707531     1.4757188983
C     3.6664960002     0.0631590957     2.4443938832
C     2.5171754579     0.6776276791     2.9978148763
C     1.5303607005     -1.6169938191     3.2521862641
C     0.3690612776     -2.4135775147     3.3314795898


