92

 C     -4.539472889     2.4398977193     -0.3382803496
C     -3.4872246367     3.4189289656     -0.2278955342
C     -4.9274267689     1.6984203142     0.7796767959
C     -2.8695032301     3.6510131661     1.0075407958
C     -1.4874126798     3.9653608574     1.0568628996
C     -2.6527237075     3.3103044832     -1.390939089
C     -1.2964498298     3.6127745509     -1.3571114678
C     -0.7112631047     4.0692966791     -0.1055262624
C     2.6591583135     3.3223844136     1.3578631126
C     1.3033993014     3.6267423239     1.3203709871
C     0.7189814865     4.0690921276     0.0633540863
C     1.4949419572     3.9497875352     -1.0976880332
C     -5.3069971776     -0.2941633584     -0.6192396673
C     -4.7407040428     0.4295808678     -1.7497871268
C     -5.3048765188     0.3128219892     0.6396397599
C     -4.3608598414     1.7538532002     -1.6086490757
C     -3.1370884387     2.2068662151     -2.2035933913
C     -2.2392419892     1.3094802052     -2.8349120979
C     -0.4343349393     2.9304432352     -2.3087081356
C     0.9152605221     3.2470759814     -2.2462445646
C     -3.1684052592     -2.7448931565     -2.0996259811
C     -4.932293687     -1.6804094717     -0.7602296861
C     -4.1523645598     -1.7956992727     -1.9861631263
C     -0.8346277171     1.6765760027     -2.9173685337
C     -2.6348284763     -0.0768676153     -2.989688567
C     -3.9200308013     -0.4686869878     -2.5134033598
C     -1.9167813629     -2.4167671175     -2.7477821961
C     0.1808076179     0.6934137389     -3.2099348655
C     -1.5893383483     -1.0880105486     -3.127201453
C     -2.8783271702     -3.6365517269     -0.9933041769
C     -3.4925126896     -3.4034032368     0.2436933888
C     -4.5427875524     -2.4225587327     0.3567420959
C     -4.359768646     -1.7368260055     1.6266514763
C     -4.7369695444     -0.411900404     1.7687500999
C     -1.4969110557     -3.9532854173     -1.046127648
C     -2.6548785471     -3.2962214615     1.4046173361
C     -1.299218581     -3.6010314973     1.3673538641
C     -0.7179961675     -4.0585602906     0.1142911991
C     2.6499883163     -3.3174595145     -1.3576348004
C     1.2938057807     -3.6194792153     -1.3167079393
C     0.7118145879     -4.060823085     -0.0582129848
C     1.4909219402     -3.9428587052     1.1008581567
C     1.9104946101     2.392798837     -2.7817052203
C     1.5821068977     1.0595580377     -3.1442098663
C     -0.1882121499     -0.7227082239     -3.2009126367
C     2.6279615575     0.050139107     -2.997150817
C     2.2327956143     -1.3342316807     -2.8246302687
C     0.8279792093     -1.702277399     -2.8990775345
C     0.4292578967     -2.9486933741     -2.2742900938
C     -0.920169257     -3.2645282011     -2.2045699879
C     3.1322650758     -2.2239330369     -2.1847995453
C     -3.158312479     2.7598537113     2.1145980362
C     -4.1441923816     1.8123599287     2.003629534
C     -3.9128130551     0.4849482885     2.5302796768
C     -3.1352769791     -2.1919514644     2.2184937576
C     0.9153676015     -3.2391499854     2.2508783896
C     -0.4335166978     -2.920190483     2.316760834
C     -0.8301013164     -1.6656354361     2.9264308267
C     -2.2342856313     -1.296117602     2.8475319893
C     -2.6270848015     0.0909106873     3.0033077444
C     0.1877670399     -0.6842274233     3.2164193246
C     -1.5795068394     1.1002465506     3.1381714097
C     -1.9056174934     2.4295670075     2.7595802519
C     1.9134291211     -2.3865926809     2.7838138689
C     1.5882627595     -1.0527887208     3.147147325
C     -0.1788304799     0.7325282557     3.2083326828
C     2.6354807927     -0.0451750326     2.9974398447
C     2.2422672824     1.339876188     2.8259176322
C     0.838281223     1.7103443341     2.9039220603
C     0.4401273909     2.9574464114     2.2801427464
C     -0.908925657     3.2756081151     2.2138419383
C     3.1416440188     2.2280269155     2.1838066404
C     5.3072502812     -0.2956863772     0.6298161695
C     4.7422083167     0.4426406291     1.751528783
C     4.3646296287     1.7657586423     1.5943908057
C     5.3061544584     0.2960369711     -0.636308428
C     3.9200067716     -0.4449226866     2.5259345524
C     3.1644848264     -2.7246731474     2.1396918991
C     4.9301774087     -1.6794840167     0.7875464382
C     4.150066297     -1.7786084333     2.0147761267
C     4.736997372     -0.4413110924     -1.7565825869
C     4.3575363475     -1.7637762019     -1.5984855932
C     4.539395841     -2.434416682     -0.3203751677
C     3.4874466974     -3.4120267764     -0.1954924498
C     2.8728730406     -3.6291513207     1.0442288757
C     3.1637604874     2.7287185691     -2.1407551613
C     4.1480215245     1.7809555843     -2.0183342462
C     3.9143656926     0.4476692298     -2.5289031036
C     4.5444039525     2.4360877868     0.3158210626
C     3.4938283175     3.4155098359     0.1936009446
C     2.8764890916     3.633696745     -1.0445591955
C     4.9310709106     1.6804833595     -0.7930862091


