92

 C     4.1834338217     -0.5724967532     2.1722912037
C     4.4102372938     0.7949109306     1.74602056
C     4.3352912473     -1.6177015616     1.2711700191
C     4.7271363624     1.0725059276     0.4279724694
C     1.6896848026     3.2414703236     2.3169303131
C     3.4651354493     1.6397856536     2.4252899196
C     2.9038516233     2.7839540594     1.7858732864
C     3.1837838011     3.0548930122     0.3768747212
C     2.1490796866     3.7042502341     -0.4469465764
C     4.1286778038     2.2052884665     -0.2501505867
C     2.1184571945     3.3921601181     -1.8226029302
C     2.3139147744     -2.7436879884     2.1683002709
C     2.1104412701     -1.6055701813     3.0702492325
C     3.4133422578     -2.7055328367     1.2827347878
C     3.067100231     -0.5731000124     3.0638844181
C     2.6642280845     0.8013956627     3.2675103747
C     0.9374494532     2.453973322     3.2549136044
C     1.3358468127     1.1424086415     3.5978063138
C     0.3315996852     0.1104525506     3.7479986732
C     0.7645392752     -1.2780179783     3.5422660234
C     -0.2095296093     -2.255717217     3.3633407476
C     0.0078010991     -3.4323243371     2.5373570322
C     1.1944797709     -3.6043013     1.8069184836
C     1.1041142004     -4.2042369626     0.4752647849
C     -1.2696671734     -3.8229219991     2.0285864767
C     -1.3629754124     -4.3668750539     0.7590703052
C     -0.175444587     -4.571301     -0.0056028548
C     -2.2711911665     -2.8916971753     2.4985904387
C     -3.3732848403     -2.5229827399     1.6975853722
C     -3.9364417128     -1.244248984     1.9707688956
C     -0.4387795693     2.7943448417     3.1390031739
C     -1.4499626624     1.8368025183     3.2935600493
C     -1.062951273     0.4636016341     3.6412045805
C     -2.0406070042     -0.590960796     3.434910461
C     -1.6021912175     -1.9331654751     3.3292938265
C     -3.2901823473     -0.3096501472     2.8252543968
C     2.1184114383     -3.8607445085     -0.5150132863
C     3.2640436113     -3.1716641524     -0.0906546922
C     -0.5447636363     -4.3239963975     -1.3901254195
C     0.3680183577     -3.8221613383     -2.2778409439
C     1.7358069907     -3.6562834138     -1.876895184
C     -1.9083488528     -3.8609040333     -1.4423513277
C     -2.28647655     -2.8170509281     -2.3378673224
C     -3.4230287359     -2.0830983709     -1.9583754266
C     -3.4473172083     -3.0465145589     0.3262529616
C     -2.4454468984     -3.940207038     -0.1195154587
C     -4.026618484     -2.2209806387     -0.6762584834
C     2.2753455877     -2.5805002833     -2.6343493816
C     3.3659701204     -1.8207816721     -2.1730370291
C     3.9542298198     -2.2525083972     -0.9463187352
C     4.6724690303     -1.327354743     -0.1100164676
C     4.8420925508     -0.0226510416     -0.5283682626
C     2.3368546677     0.181556212     -3.323045846
C     3.4512392511     -0.4217638105     -2.5704875123
C     4.2735326328     0.4216445005     -1.7849286427
C     2.1961341437     1.5734609289     -3.27627073
C     2.9695441642     2.3858872577     -2.3795109107
C     3.9656141764     1.8152828082     -1.6231588896
C     1.1898875526     -1.9803705903     -3.3962258292
C     -0.178432744     0.0086545207     -3.7801180946
C     1.1374777976     -0.6035812162     -3.6524803745
C     -1.466039834     2.105466501     -3.38862013
C     -0.2544815405     1.4644342121     -3.7093860587
C     0.9146954173     2.2069824912     -3.4231006095
C     -1.2688412086     -2.1670325048     -3.1779732155
C     0.0118491672     -2.7474564548     -3.184956751
C     -3.6166240895     -0.7231589904     -2.4225788077
C     -2.6253866158     -0.0707381295     -3.1983332102
C     -1.378304625     -0.766354167     -3.5329094928
C     -2.6567800272     1.3415803158     -3.1391244103
C     -2.745277023     3.2664639126     -1.8633872406
C     -1.5092854876     3.2977935267     -2.5935478368
C     -0.325206453     3.8387476453     -2.0260169601
C     0.8795919564     3.3501302048     -2.5637355079
C     -2.773992396     3.7613541599     -0.5796846068
C     -4.4008985324     -0.0241935104     -1.45956949
C     -4.2495033092     1.3706907493     -1.2422581263
C     -3.4652581891     2.0542670575     -2.1992505874
C     -4.4038921015     0.9375885494     1.1947612711
C     -4.6026427917     -0.4752742829     0.9380531517
C     -4.6217558449     -0.9412149824     -0.3567045219
C     -3.5350502984     3.0494279831     0.4425977143
C     -4.2707265652     1.8782688734     0.135162019
C     -0.5287336868     3.8556703459     2.154359751
C     -1.6676714021     4.0229719162     1.412651649
C     -2.8102770834     3.1735876977     1.6665370788
C     -2.7179705459     2.0971869731     2.5957056114
C     -3.6079982324     1.0305467843     2.3692061331
C     -0.3233890451     4.31851138     -0.6490533254
C     0.9026715806     4.1931017382     0.1518151324
C     0.7588138855     4.0248327563     1.5470728717
C     -1.578171287     4.3197507556     0.0155075263


