92

 C     -2.4116922076     -1.218750805     -3.3967453099
C     -3.4526009749     -0.555432894     -2.7004540675
C     -4.180482201     -1.3478338245     -1.7687405202
C     -4.8703896227     -0.7468450238     -0.6554954035
C     -4.882580812     0.6244876439     -0.5174720578
C     -1.2996029627     -0.4973413063     -3.9181006966
C     0.1466468332     1.3909172401     -3.8705543731
C     -1.1643121631     0.8930295959     -3.7190908065
C     -2.1478615805     1.6181840275     -2.908561637
C     -3.334375111     0.8938134248     -2.4752345404
C     -4.1070083309     1.4523655851     -1.4335540981
C     -3.3368913462     2.9280183521     1.7053920439
C     -4.8316531094     1.2226396706     0.7980086299
C     -4.1348904502     2.4726605317     0.6707467851
C     -2.1444682186     3.6630442978     1.4042191052
C     -0.408863535     4.2696786107     -0.1116506876
C     -1.7524511253     3.9193402761     0.059690643
C     0.5456815658     2.6071922441     -3.2595138296
C     -0.3459999704     3.303382447     -2.3943365823
C     -1.7213547101     2.8080970836     -2.2094512661
C     -2.4593875813     3.2526718561     -1.0373037144
C     -3.6614250648     2.5974074946     -0.7123007185
C     0.2696967041     4.0603879677     -1.3703416099
C     -3.056348779     2.068296469     2.837468254
C     -3.6380664876     0.8190421488     2.9109113727
C     -4.6084815215     0.4071614053     1.9225340026
C     -4.4573616376     -1.013958016     1.7494628803
C     -4.6696245484     -1.5925937013     0.5054623207
C     -1.6694747579     2.2375893193     3.1771752691
C     1.4368799395     0.1549415349     3.5244931943
C     2.8192709417     0.2876229672     3.2615683817
C     0.6057206456     1.3205999764     3.3445031233
C     -0.8345374609     1.1561236664     3.5072904083
C     -1.4336504558     -0.1847367897     3.5242876907
C     -2.8162330457     -0.3154686372     3.2613964343
C     0.553925905     4.1303166372     0.9264363176
C     0.2191641444     3.450080652     2.1231764687
C     -1.1538774607     3.3234159813     2.3817778437
C     2.5108757349     2.4963696236     2.1929917596
C     1.1450088725     2.4937934774     2.6930106007
C     3.343833485     1.4380267748     2.5780110901
C     -1.8390575532     -3.9704864181     0.2876382644
C     -3.8752765054     -2.70939712     0.0934279396
C     -2.8499097488     -3.231846883     0.9354272103
C     -3.341297528     -1.4607774198     2.5697165585
C     -1.1423935385     -2.5173630852     2.6752879528
C     -2.5086245242     -2.5162344525     2.1762561727
C     1.1562607693     -3.3446485342     2.3562307431
C     -0.2169689917     -3.4693958183     2.0977018078
C     -0.5526076318     -4.1407482253     0.8962011411
C     0.8377516103     -1.185757272     3.4980061254
C     -0.6026269237     -1.3490291523     3.3350627391
C     1.6724427455     -2.2647438958     3.159272412
C     -1.6806760278     -3.988156929     -1.1368241559
C     -2.5457274183     -3.2118861093     -1.9478488395
C     -3.6789746859     -2.6267175083     -1.3349577595
C     -1.9669609618     -2.5352378924     -3.045584708
C     -0.2700615595     -4.0538065007     -1.4002063746
C     3.6615458486     -2.5957173172     -0.7342186778
C     2.4592665132     -3.2485612403     -1.0631870778
C     1.7203715522     -2.795314016     -2.2314589369
C     0.3448932507     -3.2892262254     -2.419012241
C     -0.5474179215     -2.586652067     -3.2783567663
C     0.4094210469     -4.272410333     -0.1435966768
C     2.1461345836     -3.6770210754     1.3754582933
C     1.7531348197     -3.9233490417     0.0293531885
C     4.1066073966     -1.4453643205     -1.4472914642
C     3.3332150912     -0.8791174543     -2.4842403972
C     2.1463778683     -1.6002510953     -2.9220450015
C     1.1622403536     -0.8691191959     -3.7264623983
C     -0.1488258718     -1.3658802133     -3.8806576475
C     1.2973904261     0.5226846795     -3.9152706058
C     4.8828553635     -0.6242988902     -0.5256653083
C     4.8705647254     0.7480169895     -0.653514067
C     4.1798477947     1.3572351247     -1.7617783387
C     3.4512879471     0.5717633895     -2.698806544
C     2.4098657708     1.240215956     -3.3893982742
C     3.338779784     -2.9442465968     1.6811952191
C     4.8328839418     -1.2321856651     0.7853801234
C     4.136022938     -2.4812312705     0.6493695428
C     4.6706526655     1.5851394655     0.5138202778
C     4.459298084     0.9973006445     1.753654471
C     4.6105404386     -0.4250616207     1.9160798779
C     3.6408444645     -0.84425856     2.9020863342
C     3.0590690012     -2.0929338878     2.8198123545
C     1.8399310767     3.9645719551     0.315688167
C     3.8760074931     2.7049638126     0.1106539351
C     2.8512559557     3.2211563892     0.9572496359
C     1.965393525     2.5540580312     -3.0281650149
C     3.6786593704     2.6328703102     -1.3181628265
C     2.5449621933     3.2225567215     -1.9258708536
C     1.6805034436     3.9927918482     -1.108482232


