92

 C     0.0627695252     4.3717270782     0.3550933594
C     -1.1651440745     4.078718191     -0.2631545985
C     -2.2966597024     3.6650170383     0.580935826
C     -3.4088387124     2.9235233033     0.0008920684
C     -4.146234166     1.9900834513     0.8042994177
C     -3.3725117569     2.6571946779     -1.3832063712
C     0.1871944431     3.457823741     -2.3251458323
C     -1.1075291935     3.6969341304     -1.6703977162
C     -2.2568325629     3.0740181498     -2.204534447
C     0.2191859723     2.561569433     -3.4172129337
C     -0.9418472803     1.8434280334     -3.8325848149
C     -2.1593304189     2.1213593864     -3.266264445
C     1.4425688805     3.6525152455     -1.6031267015
C     2.6419789808     2.875940116     -1.9384993757
C     1.3405512497     4.1890765573     -0.3040729075
C     3.6338954537     2.6908956941     -0.9417421066
C     -3.9230356521     1.4405754194     -1.9317491416
C     -4.5110169655     0.459578047     -1.095226247
C     -4.6587486444     0.7762198547     0.2833397182
C     -4.3153990616     -0.9054259283     -1.4523814038
C     -3.4373315911     -1.2603289867     -2.5103396978
C     -2.735912601     -0.2923556639     -3.2738338426
C     -3.1038877144     1.0579895897     -3.0512777353
C     -4.2332146325     -1.9504884254     -0.4466329499
C     -4.2554305687     -1.6292708329     0.9400670181
C     -4.4894211783     -0.2658191078     1.2975294849
C     -3.4496524527     -2.3954455136     1.8325674463
C     -3.3646885887     -2.968764913     -0.9331512915
C     -1.3440305822     -4.2469516933     -0.5448468608
C     -2.566499776     -3.7477264748     -0.0400319773
C     -2.6259886412     -3.4647084443     1.350489052
C     -0.5663950122     0.4726023267     -4.1191424445
C     -1.3742808879     -0.6108038729     -3.7422472639
C     -0.7171006422     -1.8613533389     -3.3422042535
C     -1.5133891662     -2.8312285367     -2.5906528832
C     -2.8335237306     -2.527260198     -2.1962197811
C     -0.8411692825     -3.8213508143     -1.8202747863
C     -2.733162178     -1.7610191533     2.9005859224
C     -2.8558562909     -0.393791001     3.1667292716
C     -3.8732943622     0.3090519851     2.4401055042
C     -3.7280798315     1.7104696961     2.1646921384
C     -2.6864345549     2.4043131598     2.6994288644
C     -1.4695574976     -2.4408207752     3.0680804729
C     -0.2881336129     -1.7636064359     3.4871443782
C     -0.3784106732     -0.3441178688     3.7825652849
C     -1.673523568     0.3263552497     3.6556549523
C     -1.6711177437     1.7195734894     3.5102875354
C     2.059895739     -0.1999362788     3.5614460517
C     0.8289814484     0.4619507601     3.7578517203
C     2.2177205725     -3.7038607159     1.4668288393
C     1.0301611942     -3.5230864617     2.2256297924
C     0.9753919993     -2.3866578544     3.1514866156
C     2.1376906576     -1.5944988815     3.2999905375
C     -1.4342603529     -3.5346766733     2.1644396483
C     -0.2184338034     -4.5138482889     0.3176903159
C     -0.2042434168     -4.0374121584     1.6579014969
C     0.2785967901     4.1168742097     1.7552649632
C     -2.0487528789     3.4688368629     1.9663703692
C     -0.7410794712     3.5955599252     2.5142474074
C     0.7966903857     1.892760536     3.4777966896
C     -0.470819576     2.488359176     3.4081153097
C     1.6197271458     3.6677333865     1.9646637395
C     1.9122605691     2.5544476759     2.7851924551
C     3.1914727807     0.4560700366     2.9247289546
C     3.1138953406     1.7921681979     2.4748070472
C     3.8851099982     2.1083844214     1.3206747901
C     3.4184676346     3.1246722519     0.3976288286
C     2.3075359624     3.8710256718     0.7109146766
C     3.9432280924     -0.5301460645     2.2254154769
C     4.5356211601     -0.2625879939     0.9609877221
C     4.5455322601     1.0994518156     0.5574705504
C     3.9062582899     -2.5640919503     0.25536339
C     3.3439238552     -2.8141562715     1.5783542307
C     3.3241930777     -1.8097664669     2.5085780576
C     4.3320266525     -0.9103571533     -1.4292607835
C     4.4700000275     -1.3079976983     -0.0718922961
C     0.9536502504     -4.420137047     -0.4889143149
C     3.4442589193     -1.5872960639     -2.3123166307
C     2.7358214168     -2.7459812114     -1.9387677276
C     3.101686548     -3.2933852885     -0.6701246956
C     2.1545715519     -4.0846376497     0.0847532172
C     0.8533791256     0.4088309444     -4.044107913
C     2.8382675258     -0.6126046879     -3.1951730087
C     1.5146189227     -0.7830404691     -3.6710625096
C     0.7230716801     -1.9439596493     -3.2927347948
C     1.3858319201     -2.9710177525     -2.4710543851
C     0.5806841061     -3.8957338065     -1.7933771521
C     4.4123455288     1.4673923753     -0.843360653
C     4.295255826     0.4902275671     -1.8007690768
C     3.3685357944     0.6727176554     -2.8851785757
C     2.5607342845     1.8481459191     -2.9708934827
C     1.3554555128     1.7061200826     -3.663057799


