92

 C     -2.7649710624     -0.3630122153     3.3492289577
C     -3.7159834411     0.0581659586     2.398230164
C     -4.2421530437     -0.9612495996     1.5522596495
C     -4.6672606138     -0.6488590354     0.2045599136
C     -4.666127996     0.6526055441     -0.2143221996
C     -2.5860460693     2.3236039193     2.4082686578
C     -3.6619967259     1.442141934     1.9370522094
C     -4.2476580933     1.7175055395     0.6766173288
C     -2.2274498354     3.4243667518     1.6118414812
C     -2.7789936152     3.6110959769     0.2997969652
C     -3.742684175     2.750817727     -0.1663436669
C     -1.5697284486     1.8357162842     3.3423026673
C     -0.2023625823     2.3963319578     3.3294279725
C     -1.7520475181     0.5447325216     3.8670546446
C     0.8426226208     1.6179030827     3.8549881864
C     -2.7513221502     0.3659089395     -3.3513106589
C     -3.7063405621     -0.0548449838     -2.404146443
C     -4.2354599929     0.9648044929     -1.5602994227
C     -2.1993460793     1.6790301942     -3.3358972312
C     -2.5675681126     2.6283991025     -2.3604221855
C     -3.669569767     2.2747518927     -1.5351550042
C     -3.6548212277     -1.438842266     -1.9427548077
C     -4.2456785355     -1.7139442734     -0.6846880668
C     -3.7445594053     -2.7474812901     0.1602959509
C     -2.5773731997     -2.320782778     -2.4096368438
C     -2.2224740946     -3.4217038255     -1.6117754013
C     -2.77938194     -3.6081891859     -0.3019632373
C     -0.6282368211     0.2587619089     -4.2732195609
C     -1.7367233118     -0.5422862267     -3.8650554992
C     -1.5570877797     -1.8333495554     -3.3395723752
C     0.6467719162     -0.2706486955     -4.2698145564
C     0.8574015657     -1.616612327     -3.8425478387
C     -0.1900357036     -2.3945743688     -3.3211952794
C     0.2047561168     2.3856908551     -3.3279725434
C     -0.8405759198     1.6060741044     -3.85107038
C     1.7536112081     0.5316983278     -3.8597286488
C     1.5718707569     1.8244158173     -3.3390664698
C     -0.16088848     3.4305695965     -2.3699762025
C     -1.7395330621     4.0989049208     -0.5832721882
C     -1.5404940332     3.5458821321     -1.8689583054
C     0.8782450152     3.9576657071     -1.5922791455
C     0.6382709163     -4.4419733746     0.270811359
C     -1.7437004509     -4.0964603171     0.5852810179
C     -0.6389486009     -4.4425054426     -0.2477181936
C     0.1717425688     -3.4364101482     -2.3584292165
C     -0.87051838     -3.9610421031     -1.5832543034
C     1.7431780243     -4.0990709014     -0.5632790405
C     1.5493197718     -3.5501282909     -1.8515012085
C     0.8700575004     -3.9563862646     1.6048149418
C     -0.1719650179     -3.4288282678     2.3783230034
C     -1.5495942736     -3.5435270971     1.8717576533
C     -2.5782307653     -2.6255851151     2.3590855894
C     -3.6767454856     -2.2714476157     1.5293901202
C     -2.213518585     -1.6763789786     3.3360349038
C     1.5575879956     -1.8234489797     3.3543835235
C     0.1902829229     -2.3841124826     3.3377857947
C     -0.8568013853     -1.6040278248     3.8566722361
C     1.7378034684     -0.5308101825     3.8757735398
C     0.6296799326     0.2720307026     4.2814016709
C     -0.6455673793     -0.2568113226     4.2796742684
C     3.7446432764     -2.7496557149     -0.1425678462
C     2.7790804418     -3.6084600849     0.3224146484
C     2.2222572772     -3.4175741421     1.6316288799
C     4.2462296101     -1.713672618     0.6991388126
C     3.6554968797     -1.4343202113     1.9563249343
C     2.5776524082     -2.3142907093     2.4259974248
C     2.2140843848     -1.6879278582     -3.3216812137
C     2.5783705782     -2.6342003814     -2.34173147
C     3.6770445267     -2.2779328888     -1.5131628398
C     4.6682902027     -0.6516004201     -0.1934783727
C     4.6677435603     0.6511870045     0.2212795728
C     4.2372157914     0.9678414829     1.5662597449
C     3.7076378178     -0.0488879417     2.4133309749
C     2.7528081316     0.3752975619     3.3591567373
C     2.7661272501     -0.3748603926     -3.3390336671
C     3.7173292638     0.0489021391     -2.3893741861
C     4.243042336     -0.9680659438     -1.5401807421
C     2.7819352941     3.6088897239     -0.3022059227
C     2.2303033499     3.4182495205     -1.6136514475
C     2.5884044607     2.3148075134     -2.4065828701
C     3.7452394498     2.7496557277     0.1666564167
C     4.2497517358     1.7134488351     -0.6730256634
C     3.6639628442     1.4343572025     -1.9325803047
C     -0.6379916342     4.4444595421     0.254168365
C     1.7426931961     4.0999622238     0.5793114892
C     0.6413043826     4.4433576575     -0.2592181761
C     2.2014235231     1.6886095318     3.3395846886
C     3.6719122473     2.2779625513     1.5369665603
C     2.5700711753     2.6347191206     2.3611079796
C     1.5434065382     3.5511054659     1.8667437383
C     0.1637503148     3.4380042445     2.3681237007
C     -0.8751491931     3.9631017018     1.5887618075


