92

 C     -0.2001588688     -1.9858455182     -3.7948704313
C     1.1223418452     -2.2858839031     -3.4242082213
C     2.0807779358     -1.2750664305     -3.7215141388
C     -0.6027190017     -0.6407726803     -4.1756807831
C     0.3128418933     0.4273691075     -4.1943346939
C     1.6783781518     0.0535519083     -4.0872894695
C     1.335530899     -3.2107000588     -2.3158310648
C     2.6052138766     -3.1446836538     -1.6716976037
C     -1.303843242     -2.6195665368     -3.1764402778
C     -1.1451058977     -3.4540534763     -2.0404837276
C     0.206429629     -3.7502768395     -1.5805490698
C     0.413310144     -4.1714555284     -0.1883463913
C     -0.7156507175     -4.2803442199     0.6476246811
C     -2.4289454199     -1.7047714039     -3.3024378831
C     -3.4588212074     -1.7487968531     -2.4029036642
C     -3.4375455318     -2.7053053151     -1.3260995197
C     -2.2904985045     -3.5328045911     -1.1171051993
C     -2.0436350283     -3.9354561494     0.2047842191
C     0.8589995218     2.6351416421     -3.2974094748
C     -0.1437559783     1.740128229     -3.7333643156
C     -2.435316911     0.8010945504     -3.3029703927
C     -1.9593649408     -0.4479147634     -3.8182471714
C     1.7058332817     -3.9681564016     0.4732546702
C     2.7756097018     -3.4618325374     -0.2995957566
C     -0.6418130543     -3.9495887136     2.0454976039
C     0.5618921155     -3.608552706     2.6345367949
C     1.7578324074     -3.7005036718     1.8742925837
C     -1.8336836931     -3.2693212887     2.4310792611
C     -1.7642381825     -2.1003075631     3.2349446778
C     -2.8076735071     -1.1572129734     3.0775342493
C     -4.1231337414     -2.0934818986     -0.240192703
C     -3.7433303405     -2.3531617663     1.1065571338
C     -2.7398659402     -3.3359858554     1.3087520292
C     -3.8115351136     -1.2937651134     2.0544958974
C     2.685220139     -2.7319143789     2.4187667805
C     3.691267972     -2.1455757537     1.6107477684
C     3.7781688084     -2.5705809659     0.2633251837
C     4.0778735435     -0.8126377146     1.9060509602
C     1.9863487845     -1.9577594587     3.3972788199
C     2.2634235623     -0.5871588529     3.6029231684
C     3.4127070278     -0.0707372104     2.9443364834
C     2.5056317802     2.175966609     3.0231148454
C     3.4903800433     1.3123323333     2.5907115097
C     -0.4631933976     -1.6181646475     3.7185118148
C     0.6464694694     -2.4654439333     3.5109837112
C     -2.5863136786     0.2290215224     3.2975580823
C     -1.3182804627     0.7426320432     3.6645080231
C     -0.2315961048     -0.1889644894     3.9210579723
C     1.1389990035     0.3039562178     3.9201808067
C     1.346022362     1.6841102566     3.7305256784
C     4.4304999148     0.1061677318     0.8607882898
C     4.4225651543     -0.2854109759     -0.4939116755
C     4.1976429313     -1.6717499239     -0.7607201613
C     3.5487997966     -2.0925099     -1.9761874681
C     3.2848447704     -1.1638697059     -2.9497521513
C     3.5945283285     2.0611921767     -1.0610770288
C     4.0410427419     0.7203375021     -1.4946087715
C     3.5961468851     0.2417879678     -2.7405549761
C     2.75917155     2.7913333179     -1.9311671749
C     2.2313983827     2.2164101175     -3.1411582383
C     2.6420203686     0.9668185798     -3.5300547929
C     4.0341684764     1.4384146365     1.2721168398
C     2.5767321019     3.3890704096     0.8563153699
C     3.5408895129     2.3977730684     0.361082002
C     0.3900849821     4.4915124049     0.3436254842
C     1.6705857181     4.0442597893     -0.0821069246
C     1.772375612     3.7230937152     -1.4512525135
C     2.1319608715     3.2828688219     2.2010019308
C     -1.9033088287     4.1781828727     0.3279247178
C     -0.7641179056     4.4238998647     -0.5074776494
C     -0.6921864661     3.8515370431     -1.8096256968
C     0.6106451177     3.6213572321     -2.2919429852
C     -2.977833646     3.492524333     -0.1749851098
C     0.7847821145     3.6279166996     2.57794391
C     -1.4535520672     3.9474890165     1.6912612047
C     -0.0541574528     4.259789989     1.6981587098
C     -3.5018120722     0.9618597706     2.4470043147
C     -3.7060664283     2.5975658025     0.6744658328
C     -3.195284266     2.2504839522     1.9611048299
C     -1.9811166042     2.8944874186     2.4602139046
C     -1.0627052114     2.1443288276     3.3395730834
C     0.2638235629     2.5841704335     3.4363201058
C     -4.54173165     -0.754460163     -0.6425950818
C     -4.2866965531     1.6003497726     -0.1751793205
C     -4.5784007446     0.2984540303     0.3082361345
C     -4.2417807413     0.0173023196     1.6694017156
C     -1.7825908775     3.0196087005     -2.3169561621
C     -1.5109551624     1.9177845913     -3.2417978625
C     -2.9499812143     2.9511646129     -1.5215104004
C     -3.8067603195     1.8137909449     -1.5247780459
C     -3.5875643148     0.7361400358     -2.4075461576
C     -4.0931618011     -0.5302564373     -1.9778554878


