86 

C -1.303240 -3.097290 -2.442910
C -2.311660 -2.093840 -2.619960
C -3.414660 -2.133790 -1.728670
C -4.205500 -0.990890 -1.501140
C -3.931850 0.190440 -2.203660
C -0.013120 -2.898550 -2.890500
C 0.414720 -1.628240 -3.434640
C -0.550130 -0.597860 -3.615860
C -1.950470 -0.858150 -3.255440
C -2.822870 0.243200 -3.081870
C 1.275880 1.048470 -3.719060
C -0.096430 0.787520 -3.748210
C 2.227620 0.014490 -3.465300
C 1.826070 -1.307820 -3.312920
C 2.681770 -2.160220 -2.513910
C -4.529830 0.281150 0.566990
C -4.309510 1.519100 -0.174970
C -4.506220 -0.929630 -0.079570
C -4.031570 1.473630 -1.523980
C -3.005910 2.338280 -2.057980
C -2.304440 3.256160 -1.237680
C -1.056140 3.693130 -1.718740
C -0.988310 1.890550 -3.390360
C -2.315510 1.605950 -3.062830
C -0.443640 3.080560 -2.837860
C -2.415790 2.107530 2.805280
C -3.897920 0.422940 1.871630
C -3.464050 1.786240 1.974080
C -2.551060 3.261600 0.205680
C -3.574440 2.428420 0.686570
C -1.480640 3.126530 2.420940
C -1.470180 3.650550 1.119890
C -1.713190 1.068580 3.504030
C -2.012770 -0.278090 3.300350
C -3.165320 -0.619530 2.466380
C -3.224210 -1.935620 1.828650
C -3.877080 -2.068200 0.561280
C -2.230580 -2.867380 2.130150
C 0.431740 -0.784770 3.719250
C -0.931610 -1.244510 3.504950
C -1.128250 -2.547610 3.022360
C 1.486840 -1.666370 3.437350
C 1.258010 -2.950720 2.868720
C -0.035730 -3.385080 2.660160
C 0.957860 3.270080 2.640740
C -0.249370 2.834060 3.133020
C -0.351320 1.529680 3.711080
C 2.114190 2.449530 2.774250
C 2.026710 1.130740 3.264500
C 0.733110 0.647230 3.724730
C -0.006270 4.157730 -0.819320
C -0.178000 4.103150 0.578510
C 0.998400 3.954680 1.354730
C -1.754020 -3.798710 1.148960
C -2.211350 -3.717710 -0.179000
C -3.309980 -2.863560 -0.450410
C -1.264650 -3.942440 -1.228980
C 0.064630 -4.244140 -0.941710
C 0.568030 -4.243650 0.411480
C -0.372610 -4.088090 1.437230
C 2.276980 -3.207280 1.869230
C 1.950100 -3.793110 0.640270
C 2.741330 -3.401290 -0.499190
C 2.149650 -3.329290 -1.832240
C 0.860920 -3.699790 -2.035040
C 3.234640 -2.134690 1.952730
C 4.331770 -0.330190 0.765630
C 3.936580 -1.698190 0.814870
C 3.688680 -2.379570 -0.422770
C 2.989880 2.797990 1.665010
C 3.874410 1.883650 1.175610
C 3.951080 0.566080 1.775200
C 3.031420 0.172880 2.802570
C 2.759190 -1.188120 2.922460
C 1.247020 3.889960 -1.423740
C 2.379300 3.533130 -0.649520
C 2.252090 3.667540 0.752360
C 3.032090 1.949380 -2.432300
C 1.822440 2.278000 -3.166040
C 0.982190 3.252160 -2.700650
C 4.076390 1.752370 -0.259430
C 3.314220 2.535660 -1.184390
C 3.669470 -1.624000 -1.693960
C 4.384870 0.406810 -0.511790
C 3.972920 -0.219410 -1.723380
C 3.316980 0.569820 -2.680400
