86 

C 1.235700 0.931220 3.823150
C 2.127480 -0.124690 3.454750
C 3.332460 0.255870 2.804130
C 4.047250 -0.657590 2.009720
C 3.588210 -1.978360 1.893820
C -0.114010 0.692510 4.010080
C -0.703990 -0.590240 3.716500
C 0.142750 -1.666030 3.332180
C 1.590290 -1.440990 3.254580
C 2.384590 -2.364200 2.528510
C -1.816520 -2.852250 2.411990
C -0.440380 -2.824590 2.637490
C -2.646980 -1.720780 2.724140
C -2.116370 -0.594720 3.358050
C -2.794710 0.642880 3.133150
C 4.525800 -0.576240 -0.392120
C 4.084520 -1.963660 -0.508660
C 4.523720 0.049160 0.829750
C 3.652990 -2.649910 0.605190
C 2.499060 -3.511890 0.498150
C 1.803340 -3.665910 -0.728440
C 0.483410 -4.128620 -0.645950
C 0.392380 -3.644110 1.758020
C 1.768640 -3.395820 1.708830
C -0.181920 -4.237350 0.604230
C 2.555180 -0.464650 -3.379090
C 4.079350 0.139550 -1.579900
C 3.506830 -0.843860 -2.461650
C 2.191190 -2.857390 -1.879190
C 3.364740 -2.094150 -1.764250
C 1.393380 -1.286720 -3.589680
C 1.158350 -2.426500 -2.825860
C 2.177730 0.914100 -3.489760
C 2.590910 1.858950 -2.535090
C 3.572530 1.448320 -1.527000
C 3.619170 2.141920 -0.230090
C 4.080560 1.427060 0.923040
C 2.740710 3.205310 -0.000480
C 0.834840 0.924870 -4.037520
C -0.003320 1.987300 -3.795880
C 0.435200 3.048910 -2.905010
C 1.682640 2.976840 -2.252890
C 1.774900 3.627360 -0.998780
C -0.508540 -3.809430 -1.667600
C -0.237050 -2.844420 -2.650400
C -1.017590 -0.672990 -3.684670
C 0.314020 -0.410290 -4.009950
C 2.167100 3.439800 1.289850
C 2.452110 2.573980 2.365260
C 3.447960 1.582230 2.169770
C 1.405810 2.297040 3.290480
C 0.844890 3.960470 1.098500
C -0.201860 3.633020 1.961360
C 0.137870 2.869720 3.131600
C -2.091730 1.913780 3.248300
C -0.811660 1.936870 3.700260
C -2.954810 3.151260 -0.576290
C -1.798810 3.722180 -0.005290
C -1.567320 3.533940 1.419490
C -2.502320 2.775940 2.149680
C 0.628170 4.103000 -0.330370
C -0.722060 3.559320 -2.239260
C -0.663320 3.979290 -0.894040
C -4.209600 1.162690 -0.667670
C -3.820200 2.296670 0.172440
C -3.593560 2.109400 1.516540
C -4.127520 -1.220500 -1.018530
C -4.359640 -0.138910 -0.133280
C -1.870110 2.831270 -2.740490
C -3.464960 -1.011400 -2.257420
C -3.136140 0.277240 -2.704150
C -3.648250 1.367170 -1.953070
C -2.955000 2.641670 -1.933010
C -1.792410 -3.931470 -1.065680
C -2.833030 -3.115570 -1.496230
C -2.589570 -2.150940 -2.513930
C -1.319190 -1.975910 -3.084420
C -1.921620 0.455340 -3.497030
C -1.398280 1.758300 -3.598220
C -3.536010 -2.728430 0.817470
C -2.411150 -3.527720 1.269010
C -1.601150 -4.165230 0.354300
C -3.752290 -2.537370 -0.533460
C -3.739490 0.771820 2.098950
C -4.118040 -0.346050 1.299540
C -3.677310 -1.609500 1.732140
