86 

C 2.255470 -1.390190 -3.186340
C 2.833450 -0.108480 -2.923340
C 3.902020 -0.069830 -1.986570
C 4.230830 1.119500 -1.311300
C 3.533470 2.299190 -1.608670
C 0.960940 -1.505360 -3.659250
C 0.101060 -0.356220 -3.796270
C 0.633590 0.939260 -3.547090
C 2.039720 1.066220 -3.151490
C 2.466790 2.270710 -2.536600
C -1.662800 1.815220 -3.328350
C -0.288250 2.054250 -3.284830
C -2.179660 0.482030 -3.467370
C -1.329610 -0.597090 -3.693260
C -1.801020 -1.879550 -3.260280
C 4.111970 1.616830 1.085430
C 3.430470 2.871370 0.775600
C 4.522470 0.783510 0.074590
C 3.171820 3.212080 -0.533940
C 1.897130 3.801910 -0.867290
C 0.914610 4.053330 0.124750
C -0.404960 4.194920 -0.325110
C 0.159710 3.204010 -2.500760
C 1.506380 3.282910 -2.129270
C -0.763510 3.883820 -1.665040
C 1.501060 1.650360 3.531050
C 3.503050 1.060900 2.286520
C 2.582000 2.046280 2.775080
C 1.143160 3.600170 1.492480
C 2.416650 3.086750 1.794510
C 0.224050 2.274760 3.341950
C -0.003100 3.180450 2.305660
C 1.295700 0.263410 3.814690
C 2.083570 -0.729770 3.225190
C 3.239490 -0.314420 2.429780
C 3.760610 -1.210630 1.396360
C 4.371120 -0.649630 0.228310
C 3.193770 -2.478690 1.265910
C 0.057370 -2.265400 3.299360
C 1.469920 -2.049710 3.012350
C 2.100500 -2.919070 2.112850
C -0.612710 -3.316610 2.637180
C 0.027690 -4.084030 1.620510
C 1.370980 -3.904360 1.379410
C -0.128350 0.082990 4.027100
C -2.138700 -1.114550 3.492110
C -0.756980 -1.154390 3.786230
C -1.546590 3.912290 0.535060
C -1.375530 3.287230 1.776690
C -2.418560 2.378840 2.238880
C -2.085160 1.339190 3.214080
C -0.780250 1.307330 3.742520
C -2.795750 0.118500 3.212940
C 3.046590 -3.105430 -0.018230
C 3.395220 -2.405850 -1.189310
C 4.102720 -1.185100 -1.044350
C 2.557940 -2.560080 -2.336620
C 1.427900 -3.379190 -2.292950
C 1.011480 -4.030190 -1.077770
C 1.879710 -3.942650 0.020000
C -0.891610 -4.246880 0.499950
C -0.430390 -4.178020 -0.827540
C -1.346640 -3.670190 -1.792800
C -0.879800 -2.966670 -2.981120
C 0.451160 -2.796030 -3.201630
C -2.143340 -3.674730 0.880290
C -3.730230 -1.819990 0.393840
C -2.947880 -2.980360 -0.050200
C -2.560080 -3.068150 -1.409030
C -4.394130 0.516000 -0.050850
C -4.079640 -0.759290 -0.555460
C -4.166560 0.843780 1.331030
C -3.814610 -0.142840 2.211760
C -3.688750 -1.497980 1.760650
C -2.750560 -2.134280 2.661480
C -2.003380 -3.197050 2.241470
C -2.656400 3.619500 -0.316950
C -3.636230 2.735960 0.109110
C -3.537700 2.156020 1.409780
C -3.647780 1.646890 -2.088310
C -2.616260 2.568150 -2.530150
C -2.167920 3.558730 -1.682150
C -4.154780 1.728510 -0.806980
C -2.853400 -1.977620 -2.340260
C -3.593930 -0.835160 -1.933280
C -3.359210 0.351270 -2.651990
