86 

C 1.707740 0.236830 -3.625540
C 2.384990 1.275720 -2.974610
C 3.584400 0.918840 -2.296100
C 4.115080 1.728360 -1.206440
C 3.432380 2.848930 -0.813730
C 0.315400 0.341420 -3.940870
C -0.457100 1.409910 -3.487570
C 0.208390 2.489150 -2.744450
C 1.620200 2.437190 -2.543170
C 2.208220 3.244720 -1.504810
C -2.006490 3.178050 -1.854720
C -0.601170 3.353930 -1.883490
C -2.642630 2.060720 -2.533650
C -1.897880 1.173810 -3.320280
C -2.420210 -0.138280 -3.464260
C 4.503320 1.058060 1.131970
C 3.696800 2.194420 1.555220
C 4.715190 0.837110 -0.223450
C 3.260750 3.136270 0.602000
C 2.009540 3.749980 0.758270
C 1.163520 3.412380 1.849990
C -0.200980 3.780470 1.725350
C 0.000200 3.990370 -0.749150
C 1.409800 3.899660 -0.579400
C -0.761350 4.205850 0.429600
C 4.387710 -1.577540 0.071400
C 4.171440 -1.352830 1.491310
C 4.605260 -0.503590 -0.760850
C 4.152560 -0.058470 1.985320
C 3.065760 0.351360 2.828600
C 3.195350 -2.295530 1.947360
C 2.140890 -1.915330 2.798000
C 2.047010 -0.517110 3.206320
C 1.502650 2.307110 2.696260
C 2.801270 1.759490 2.562870
C -1.193290 3.134630 2.453980
C -0.907130 1.920860 3.167650
C 0.448920 1.485160 3.272320
C 0.741580 0.071100 3.559860
C -0.319060 -0.795690 3.751140
C 1.756740 -3.895380 0.780850
C 3.514780 -2.666290 -0.347630
C 2.946720 -3.211880 0.844880
C 0.787470 -3.755790 1.842750
C -0.253820 -2.198100 3.366570
C 0.937590 -2.743650 2.802250
C 1.062000 -4.012250 -0.460830
C 1.486430 -3.316550 -1.599140
C 2.767860 -2.617000 -1.542260
C 3.003700 -1.478130 -2.429400
C 3.887820 -0.437280 -2.025520
C 2.008250 -1.132350 -3.346050
C -0.953670 -3.164920 -2.295150
C 0.457060 -2.917380 -2.569100
C 0.784710 -1.900120 -3.475720
C -1.917870 -2.374680 -2.953930
C -1.535920 -1.256620 -3.749530
C -0.206290 -1.015870 -3.994960
C -0.344750 -4.179160 -0.144140
C -2.619710 -3.453440 -0.455940
C -1.347300 -3.778160 -1.026340
C -1.526570 -2.588330 2.935660
C -1.674200 -3.471760 1.813280
C -0.504760 -4.038750 1.275550
C -2.766770 -3.255780 0.928400
C -4.154310 -1.698860 -0.105820
C -3.524520 -2.537410 -1.116990
C -3.183250 -2.013890 -2.330090
C -4.447580 0.549910 0.750770
C -4.429470 -0.307860 -0.356750
C -2.433440 -1.454170 3.113090
C -3.930100 0.109500 2.029520
C -3.513670 -1.223580 2.221540
C -3.709460 -2.147490 1.141640
C -2.446760 3.322520 1.733380
C -3.429900 2.372200 1.812690
C -3.225820 1.196420 2.639680
C -2.003300 0.970720 3.311620
C -1.683710 -0.372270 3.618750
C -3.844830 2.500220 -0.605490
C -2.779760 3.485670 -0.709340
C -2.140950 3.947380 0.455590
C -4.169970 1.967600 0.625370
C -3.455110 -0.606780 -2.618350
C -4.063800 0.245080 -1.663610
C -3.746030 1.620710 -1.752770
