52 

C 3.563600 -0.416220 0.804380
C 4.165100 0.339470 -0.236590
C 1.352150 -1.514880 2.250420
C 1.586140 -0.115910 2.319730
C 2.786440 0.345120 1.717020
C -0.713930 0.325000 2.721390
C 0.564690 0.865310 2.421720
C -1.710230 1.317940 2.526390
C -0.041410 -3.159190 1.417080
C 0.056550 -2.088480 2.344710
C -0.907860 -1.075640 2.590620
C 3.897420 1.722320 -0.056250
C 3.054900 1.584750 1.078510
C 0.715800 2.073650 1.691240
C 1.858900 2.326090 0.887460
C 2.908200 1.851320 -1.066840
C 2.507130 0.791260 -1.922380
C 1.236980 0.454840 -2.460980
C 1.772390 2.503990 -0.518730
C -0.461590 2.864560 -0.270840
C 0.525120 2.425800 -1.193040
C 0.320460 1.522490 -2.269430
C -0.985940 1.199270 -2.722550
C -1.311610 -0.084570 -3.234560
C -1.654310 2.520050 1.772570
C -0.403070 2.755480 1.143770
C 3.299310 -0.169820 -1.240320
C -0.494030 -1.195890 -2.898390
C 0.835930 -0.907010 -2.493120
C 1.432660 -1.828460 -1.592360
C 2.626290 -1.388690 -0.961230
C -1.092250 -2.201300 -2.093550
C -0.574750 -2.967410 -1.015710
C 0.824860 -2.845260 -0.809330
C -2.317270 -1.569160 -1.752740
C -2.669590 -1.661070 -0.380190
C -2.501930 -0.390830 -2.523370
C 2.872460 -1.596220 0.421800
C 1.961620 -2.310440 1.244400
C 1.080680 -3.178790 0.547040
C -2.058970 -2.304190 0.728860
C -0.966390 -3.123750 0.340240
C -2.847780 0.710040 -1.695790
C -3.288670 0.675520 -0.346390
C -3.293510 -0.585750 0.305980
C -2.428380 2.645380 0.588710
C -1.789850 2.569830 -0.677400
C -1.941780 1.791750 -1.855490
C -3.277100 1.525110 0.791360
C -2.073100 -1.496290 1.896550
C -3.014810 -0.453320 1.692060
C -2.985620 0.922180 2.043530
