52 

C -2.040150 -0.969490 -2.268490
C -0.716570 -0.801700 -2.754900
C 0.053300 -1.965110 -2.489640
C 1.392090 -1.768820 -2.058780
C 1.966510 -0.470160 -2.069170
C 2.979080 -0.282430 -1.091410
C 3.468930 0.943660 -0.568750
C 2.848280 2.106260 -1.097540
C -0.173690 0.510090 -2.722920
C 1.218740 0.661650 -2.489120
C 1.787100 1.872190 -2.011640
C -2.888000 0.114200 -1.917480
C -2.320950 1.412480 -1.820600
C -0.980320 1.581910 -2.257030
C 1.657160 -2.622350 -0.955290
C 3.181760 -1.090530 0.058520
C 2.337060 -2.219830 0.224630
C 3.418820 0.911910 0.850030
C 3.210420 -0.416050 1.307800
C 0.196740 -3.509500 0.678750
C 0.607020 -2.718080 1.784130
C 0.575510 -3.503250 -0.689790
C 1.881930 -2.131690 1.566840
C -1.229780 0.327420 2.853380
C -0.341960 -1.881960 2.429740
C -0.116710 -0.554040 2.879610
C 1.151700 0.029020 2.619420
C 1.310530 1.358080 2.145170
C 2.149520 -0.860560 2.140480
C 2.393750 1.771910 1.325510
C -1.441260 -2.219740 1.596730
C -1.161400 -3.120520 0.535250
C -1.427130 -2.900920 -0.842290
C -0.320870 -3.092600 -1.711690
C -2.308560 -1.839690 -1.178920
C -2.846270 -1.189360 -0.036830
C -2.402020 -0.072110 2.158620
C -2.399190 -1.211240 1.310800
C -3.127820 1.023400 1.620570
C -3.548350 1.060710 0.264770
C -3.447630 -0.043780 -0.621990
C -2.230160 2.120170 1.708530
C 2.501900 2.609850 0.184200
C 1.261680 3.205880 -0.166540
C 0.199440 2.939040 0.737300
C 0.150580 2.143490 1.912540
C -1.087880 1.673570 2.424190
C -0.438490 2.661750 -1.510830
C 0.958370 2.916790 -1.523320
C -2.103030 2.570300 0.367750
C -2.891050 1.942840 -0.633110
C -0.868660 2.986910 -0.197200
