52 

C 2.868600 0.193990 1.673350
C 3.145340 1.248770 0.763720
C 3.382100 1.039340 -0.620670
C 1.756770 0.170560 2.556420
C 2.387290 2.447200 0.838550
C 1.205430 2.332700 1.617420
C 0.836150 1.247000 2.454910
C -1.450360 1.795780 2.032600
C -0.529660 0.938630 2.691490
C -0.885270 -0.393770 3.030190
C 2.087130 2.860730 -0.486340
C 2.609020 1.924470 -1.417750
C -1.106140 2.801100 1.090630
C 0.267210 3.033000 0.813810
C 1.372730 -1.265340 -2.629560
C 2.210850 -0.174940 -2.275800
C 1.758200 1.170990 -2.269140
C 0.681560 3.054380 -0.544240
C -1.491440 2.572010 -1.297550
C -0.102390 2.472170 -1.575240
C 0.366820 1.419990 -2.405420
C -0.440090 0.343410 -2.859690
C 0.042550 -0.980280 -3.036790
C -2.002800 2.875220 -0.007980
C 2.950760 -1.326150 -0.238490
C 2.037560 -2.376870 -0.518760
C 3.070650 -0.241960 -1.147660
C 1.370260 -2.397210 -1.772060
C 0.068990 -2.965530 -1.783650
C -0.673180 -2.154400 -2.682360
C -2.355100 1.616210 -1.895020
C -1.816950 0.468880 -2.535690
C 3.025230 -1.122580 1.164870
C 2.081920 -1.965090 1.810450
C -0.019110 -1.512490 2.908980
C 1.350340 -1.177810 2.738580
C -0.487040 -3.098630 -0.483810
C 0.084660 -2.951820 0.807730
C 1.479100 -2.690150 0.748700
C -0.525870 -2.477470 1.998800
C -1.783440 -2.542120 -0.645390
C -2.381290 -2.039500 0.540540
C -1.894730 -2.121680 1.872050
C -3.159220 -0.164450 -0.814790
C -2.482090 -0.648550 -1.965270
C -1.847090 -1.917820 -1.919210
C -3.076100 -0.804390 0.450120
C -3.272300 1.249780 -0.874780
C -2.873090 -0.109430 1.671700
C -2.674560 1.288650 1.522120
C -3.040420 1.966290 0.329070
C -2.127500 -0.910790 2.576310
