52 

C 1.407490 -2.971480 -1.253660
C 0.749100 -1.178790 -2.925000
C 1.688190 -1.895990 -2.137440
C 0.857280 0.229220 -3.074360
C 1.908090 0.923400 -2.418280
C 0.296560 3.034610 -0.029410
C 1.733180 2.077550 -1.609690
C 0.397160 2.467140 -1.327260
C -0.664830 1.865000 -2.052590
C -1.950680 2.010740 -1.467910
C -0.446960 0.772960 -2.933730
C -3.060230 1.150720 -1.681690
C 2.836150 0.222890 -1.603130
C 2.631910 -1.162950 -1.370280
C 2.565750 2.811870 0.723740
C 3.240400 1.027500 -0.505110
C 2.705070 2.338720 -0.607860
C 1.244610 3.249490 1.005710
C 2.593990 -1.590270 -0.016600
C 2.002900 -2.880510 0.032280
C 2.979860 0.610780 0.827160
C 2.501710 -0.700920 1.086600
C 1.274360 -3.255390 1.192080
C 2.627240 1.724300 1.634720
C 1.564920 -0.940230 2.126630
C 1.011080 -2.247460 2.157100
C 0.081520 -3.624180 0.515650
C 0.066080 -3.135540 -0.817570
C -0.877580 -3.148910 1.448760
C -0.887260 -2.285360 -1.437920
C -0.592580 -1.473300 -2.564950
C 1.502450 1.460310 2.460320
C 0.890070 0.193490 2.651740
C -1.303560 1.178820 2.303790
C -0.521930 0.081670 2.753040
C -1.082110 -1.219580 2.656050
C -0.342230 -2.426780 2.548020
C -2.547560 1.012960 1.639390
C -1.837080 -2.312810 0.818880
C -1.946360 -1.955920 -0.551210
C -2.815510 -0.920630 -0.986180
C -2.560320 -0.104170 -2.119640
C -1.359140 -0.311940 -2.847920
C -3.526920 -0.178690 -0.006470
C -3.858920 1.107500 -0.508380
C -3.001420 -0.291100 1.307930
C -2.209310 -1.360170 1.803940
C 0.751080 2.633660 2.186220
C -0.620810 2.367760 1.934010
C -3.085660 1.704680 0.522080
C -2.066590 2.453600 -0.123710
C -0.942620 2.861690 0.642150
