52 

C 3.272940 1.007550 -1.930050
C 3.321180 -0.410890 -1.976920
C 1.947440 1.517010 -1.928610
C -1.358800 0.464580 -2.286760
C -2.529970 1.180640 -1.923110
C -0.281580 1.350600 -2.019920
C 0.907140 0.681530 -2.414760
C 0.977730 -0.736350 -2.449100
C 2.229820 -1.310490 -2.103970
C -1.542620 2.551950 -0.241600
C -0.334780 2.255870 -0.927130
C -2.701150 2.250730 -1.005480
C 3.718750 -0.663700 -0.637350
C 3.091230 -1.750840 0.026570
C 2.300060 -2.250190 -1.041670
C 0.083930 -2.589460 -0.945990
C 1.274290 -2.729010 -0.184350
C -1.238020 -0.948030 -2.206430
C -0.017740 -1.644610 -2.001190
C -2.211980 -1.748750 -1.553200
C 3.449850 0.539830 1.559840
C 2.617600 -0.465630 2.119190
C 3.850700 0.476210 0.199070
C 2.516030 -1.634770 1.319670
C 1.327630 -2.402230 1.196540
C 0.328870 -1.887780 2.065030
C -0.779970 -2.524890 1.447700
C -2.113230 -2.664500 -0.472410
C -0.833250 -2.922720 0.085600
C 1.616110 1.508770 2.205550
C 2.834660 1.819590 1.546000
C 0.584300 2.098870 1.428550
C -0.639670 1.627570 1.972900
C -2.934060 1.801700 1.210880
C -1.597590 2.277750 1.150620
C 0.346910 -0.602580 2.668730
C 1.520560 0.194120 2.733760
C -1.923700 -1.745790 1.766020
C -1.899940 -0.397680 2.211560
C -0.719900 0.324510 2.531540
C -2.896050 0.459990 1.674370
C 3.831250 1.542170 -0.738880
C 2.950600 2.176860 0.176560
C 0.685850 2.413430 0.047540
C 1.864560 2.278150 -0.732670
C -2.752560 -2.220070 0.715090
C -3.587820 -1.242850 0.111930
C -3.772730 0.066760 0.628800
C -3.611850 0.361220 -1.505380
C -3.402450 -1.024880 -1.278950
C -3.631290 2.273260 0.067250
C -4.137280 1.017470 -0.360970
