52 

C -2.312210 2.443380 -1.054230
C -2.532740 1.140550 -1.574440
C -0.420300 0.793210 -2.713270
C -1.707670 0.301940 -2.369810
C -1.935020 -1.091630 -2.218840
C 0.553850 -0.188170 -3.036620
C 0.362000 -1.567190 -2.757310
C -0.923150 -2.067610 -2.419000
C -0.954290 2.795780 -1.274240
C 1.264760 2.225120 -1.684020
C -0.082430 2.020350 -2.083580
C 2.682650 2.109100 0.164910
C 1.529670 2.730520 -0.383680
C -2.648540 -1.563330 -1.085310
C -2.202060 -2.791690 -0.530100
C -1.094100 -3.027330 -1.386450
C -3.134070 -0.665990 -0.097620
C -3.283080 0.701040 -0.451820
C -1.976880 -2.883790 0.868930
C -2.073680 -1.801580 1.783230
C -2.820000 -0.700190 1.286820
C -0.616630 -3.268850 1.002680
C 1.340910 -2.005890 -1.826850
C 1.121690 -2.643410 -0.577030
C -0.154500 -3.218890 -0.339120
C 1.801550 -2.375350 0.640510
C -3.174230 1.453700 0.747390
C -2.685990 2.706330 0.290230
C -1.585670 3.098130 1.097840
C -0.974640 2.212430 2.024510
C -1.365080 0.905640 2.420030
C -2.576290 0.625450 1.733770
C 0.530560 3.069600 0.566730
C -0.732600 3.383790 -0.000830
C -0.924970 -1.486200 2.556210
C -0.486900 -0.152960 2.773120
C 0.902790 0.131140 2.705430
C 1.343590 1.375370 2.181870
C 0.417800 2.384060 1.805180
C 2.541020 1.468510 1.424310
C 1.779530 -0.963030 2.480560
C 3.010180 -0.815380 1.787640
C 3.461630 0.406430 1.222130
C 1.286270 -2.184300 1.949870
C -0.083140 -2.531690 2.092830
C 2.378370 -1.037260 -1.870060
C 3.142700 -0.905320 -0.680580
C 2.952800 -1.546900 0.571910
C 3.191720 1.376720 -0.940030
C 2.266810 1.274150 -2.012640
C 1.895010 0.054830 -2.638270
C 3.702980 0.296660 -0.172910
