52 

C -2.127680 -2.320010 -0.423890
C -3.281800 -1.510440 -0.594500
C -1.192080 -2.401640 -1.489040
C 0.034970 -2.733240 -0.855860
C 1.507370 -2.493480 1.094490
C 0.200870 -2.597410 0.547930
C -1.044980 -1.439770 -2.523290
C -1.815510 -0.258550 -2.357270
C -2.947820 -0.500440 -1.535160
C -3.649450 0.354150 -0.644190
C -3.070940 1.647460 -0.548580
C 0.340830 -1.235780 -2.756490
C 0.797450 0.108830 -2.745660
C 0.074810 1.309170 -2.514270
C -1.305330 1.064780 -2.286260
C -1.920860 1.921100 -1.335320
C 1.842430 2.647650 -1.375900
C 0.502310 2.464820 -1.808430
C 2.091710 -2.231340 -1.320270
C 0.823990 -2.304420 -1.955870
C 2.664790 -0.949160 -1.530100
C 2.080930 0.190640 -2.143630
C 2.509930 1.406150 -1.547870
C 3.488480 -1.953210 0.693250
C 2.420900 -2.595680 0.012140
C 0.028510 3.021860 -0.591180
C -1.329120 2.710960 -0.314320
C -4.274690 0.069450 0.598560
C -1.693370 2.275650 0.987340
C -3.033990 1.825170 0.859780
C -3.538750 0.733810 1.615140
C -3.933040 -1.307840 0.651010
C -2.938710 -1.368950 1.662940
C -0.643950 -1.957350 1.492980
C -1.954340 -2.123810 0.971800
C 0.698520 2.836660 0.647080
C 0.436720 1.968720 1.740110
C -0.912640 1.577170 1.946030
C -1.261420 0.275590 2.394080
C -2.617790 -0.126040 2.270090
C 1.253740 0.932580 2.264880
C 0.968950 -0.440750 2.487120
C -0.384760 -0.839650 2.329680
C 1.782640 -1.542580 2.112560
C 1.952140 2.989730 -0.002080
C 2.814000 2.163830 0.767020
C 2.565270 1.236600 1.813350
C 3.449750 -0.987850 -0.347410
C 3.687090 0.239760 0.325690
C 3.273280 1.417830 -0.350550
C 3.419540 0.106670 1.713890
C 3.161130 -1.277370 1.898450
