52 

C -0.131050 3.027650 -1.316480
C 1.099610 2.536050 -1.826760
C 2.031340 2.653010 -0.761540
C -1.194290 2.204710 -1.773460
C -1.111080 0.972910 -2.475110
C -2.210290 0.091780 -2.296510
C 2.427880 0.728090 -2.137680
C 2.822500 1.501080 -1.013740
C 2.692960 -0.663530 -2.039400
C 0.148750 0.372980 -2.738610
C 1.196140 1.310570 -2.537650
C 1.618150 -1.556900 -2.290710
C 0.325240 -1.020490 -2.529760
C 3.323570 -1.220840 -0.895650
C 3.247720 -0.479740 0.313270
C 2.999960 0.917790 0.268740
C 3.038800 -2.565010 -0.537170
C -2.020910 -1.296030 -2.062860
C -0.700950 -1.805020 -1.939910
C 1.884340 -2.598770 -1.363300
C 0.538460 3.122010 1.165740
C 1.781490 2.685330 0.635960
C 2.332690 1.578380 1.334020
C 2.749510 -1.147470 1.463210
C 1.980780 -0.524860 2.481980
C 1.816040 0.885410 2.460660
C 0.526440 1.250520 2.929760
C -0.014440 2.361360 2.229790
C 2.571950 -2.386130 0.791930
C -0.230270 3.478680 0.026340
C -1.444990 2.923190 0.508350
C -2.965720 1.287440 -0.430170
C -2.042070 2.344820 -0.642930
C -2.964750 0.695470 0.860590
C -1.331060 2.197610 1.723660
C -2.016400 0.964150 1.882810
C -3.992690 -0.776180 -0.817010
C -3.295300 0.310970 -1.407050
C -3.014530 -1.608840 1.221530
C -3.612230 -0.523670 0.527580
C -0.122930 -0.000710 3.100570
C -1.907240 -1.373850 2.078930
C -1.436760 -0.130290 2.577570
C 1.206690 -2.742570 0.951530
C -0.980350 -2.340970 1.607750
C 0.384520 -2.193320 1.970770
C 0.726100 -1.101890 2.812500
C -3.045900 -1.763390 -1.198340
C -2.733870 -2.362060 0.050920
C -1.367250 -2.670970 0.281910
C -0.459010 -2.628800 -0.808850
C 0.874710 -2.919670 -0.417720
