52 

C -2.528230 2.268640 -0.022450
C -1.877360 0.696410 2.433500
C 0.141200 1.895110 2.406000
C -1.234200 1.903900 2.052880
C -1.578040 2.710480 0.935900
C -2.225440 2.377120 -1.405560
C -2.281510 1.067410 -1.951480
C -1.061910 3.190810 -1.428810
C -1.257260 0.379100 -2.654110
C -1.360380 -1.037120 -2.637660
C -0.871040 3.453270 -0.046370
C -3.004460 0.300810 -0.999570
C -2.328290 -1.825710 -1.961110
C -3.057700 -1.117900 -0.969450
C -0.459720 -2.715160 -1.321150
C -1.855950 -2.852890 -1.101910
C -0.046800 2.408690 -2.040660
C -0.041470 1.112020 -2.619570
C 1.092620 0.258890 -2.569180
C 1.041690 -1.154840 -2.445440
C -0.206440 -1.830720 -2.402870
C 2.039210 -1.801960 -1.669120
C -3.213670 -1.780260 0.276900
C -2.271250 -2.842250 0.255980
C 1.705940 -2.501660 -0.479230
C 0.345960 -2.746610 -0.152210
C -3.069390 -1.132340 1.532220
C -2.851550 0.270300 1.492310
C -2.998200 0.958520 0.258920
C -0.068720 -2.463090 1.176000
C -1.471670 -2.526560 1.386240
C -2.026430 -1.642930 2.349500
C 0.100610 -0.589540 2.839800
C -1.317740 -0.531100 2.876790
C 0.723710 0.686110 2.870200
C 2.034770 -1.599340 1.743700
C 3.806950 -1.585630 0.016950
C 2.604690 -2.119560 0.551630
C 0.659770 -1.660150 2.093100
C 3.695710 -0.445250 0.855750
C 2.759350 -0.391180 1.921940
C 2.040670 0.758490 2.344060
C 3.625550 0.583450 -0.120620
C 3.340020 0.112080 -1.429320
C 3.309920 -1.299970 -1.282190
C 0.943390 2.782530 -1.093970
C 2.101590 1.960920 -1.096990
C 2.234260 0.834240 -1.951030
C 2.102020 1.827460 1.411330
C 0.903380 2.588640 1.428980
C 0.498670 3.169310 0.197950
C 2.713150 1.639010 0.143490
