52 

C 3.077170 1.006620 -1.433740
C 3.240690 0.712380 -0.054170
C 2.763800 1.293230 1.150700
C 1.981690 1.893210 -1.608090
C 0.065570 2.962130 -0.675260
C 1.400720 2.521870 -0.475020
C 1.762370 2.261020 0.873180
C -1.942570 2.497680 -1.396430
C -0.585630 2.393590 -1.801860
C 2.659820 0.709260 2.440900
C 0.956420 2.120770 2.033890
C 1.430330 1.172980 2.979200
C 2.657280 -0.710750 2.444540
C 2.765440 -1.293370 1.154050
C 3.242720 -0.707620 -0.048280
C 1.425970 -1.170890 2.981750
C -2.449320 -1.246620 1.561910
C -1.173330 -1.234870 2.185040
C -0.742480 2.999630 0.491850
C -0.407520 2.305480 1.684520
C -2.456900 1.246810 1.555330
C -1.181880 1.223210 2.180060
C -0.665940 -0.003030 2.676660
C 0.655730 0.002720 3.195870
C -3.104920 -0.002390 1.365560
C 3.078200 -1.008020 -1.426370
C 1.767880 -2.261340 0.863550
C 0.062500 -2.961250 -0.666700
C 1.399970 -2.520730 -0.483270
C 1.980590 -1.889070 -1.614790
C -2.048990 -3.036410 -0.088760
C -0.754620 -2.998990 0.494080
C -0.395070 -2.311530 1.683430
C 0.968810 -2.119200 2.028760
C -2.930910 -2.135600 0.564800
C 3.233590 -0.004240 -2.418680
C 1.316270 -1.218880 -2.675910
C 1.953260 -0.000950 -3.032830
C -0.579250 -2.390780 -1.797720
C -0.093280 -1.261950 -2.509110
C -2.046390 -0.004490 -1.979490
C -0.734090 0.005220 -2.522000
C -0.085850 1.268570 -2.509710
C 1.324090 1.219640 -2.671260
C -2.571160 1.229670 -1.512650
C -1.937670 -2.499240 -1.398530
C -2.575910 -1.235680 -1.510200
C -3.487690 1.289040 -0.429660
C -3.758160 0.001530 0.104740
C -3.492280 -1.288140 -0.426720
C -2.038680 3.038060 -0.086780
C -2.930370 2.141730 0.559650
