52 

C -3.598090 0.750120 -0.695350
C -3.503040 -0.626130 -0.358640
C -2.687270 2.343440 0.317390
C -3.800410 1.481870 0.504680
C -0.999330 -3.104400 -0.171860
C -2.160590 -2.321900 0.064200
C -2.654090 -1.551370 -1.021730
C -2.659790 1.078090 -1.709490
C -1.977110 0.172740 -2.564350
C -2.013820 -1.209790 -2.242320
C -0.767400 -1.864970 -2.425770
C -0.398870 -2.799410 -1.422040
C -0.199570 2.855200 0.002040
C -0.743640 2.384500 -1.222300
C -2.125380 2.169670 -0.975120
C -0.269010 -3.255880 1.036510
C 1.002680 -3.232490 0.405050
C 2.721440 -1.700640 0.759730
C 1.705650 -2.475620 1.379470
C 2.725670 -1.442540 -0.636640
C 0.939430 -2.803950 -0.947290
C 1.698110 -1.771650 -1.559840
C -0.308600 -2.308570 2.093650
C -1.308490 -1.310450 2.236880
C -2.322290 -1.637510 1.297870
C -3.318290 -0.656460 1.048980
C -3.328420 0.665800 1.566610
C 0.142830 0.616100 2.669160
C -1.160420 0.058630 2.583600
C -2.133750 1.033890 2.240210
C 0.312130 1.925720 2.146890
C -0.610220 2.649490 1.345730
C -1.960880 2.253800 1.534260
C 0.971150 -1.751780 2.355720
C 2.380140 0.225480 2.203530
C 1.162770 -0.371010 2.626240
C 3.960630 0.260210 0.437420
C 3.247620 -0.533670 1.374330
C 3.417570 1.571670 0.476840
C 2.569680 1.503300 1.613880
C 1.455750 2.364210 1.428330
C 3.157250 1.879760 -0.884680
C 3.125750 0.744890 -1.737610
C 3.489230 -0.256280 -0.798470
C -0.014560 -0.787130 -2.962390
C 1.942170 0.500380 -2.483130
C 1.331090 -0.781160 -2.508900
C 1.216120 2.800430 0.098400
C 1.852940 2.396290 -1.104750
C 1.275330 1.725030 -2.214790
C -0.141420 1.656310 -2.282260
C -0.638360 0.487760 -2.917840
