52 

C -1.707620 -0.347550 3.052550
C -2.613640 0.177140 2.093190
C -3.388030 0.808320 -0.659820
C -2.556640 1.478150 1.526930
C -3.084780 1.845830 0.261110
C -0.493230 0.386460 3.107230
C 0.958330 2.042650 2.014640
C -0.329850 1.635900 2.452420
C -1.349420 2.215380 1.651720
C -2.792990 0.976260 -1.938170
C -2.233990 -0.280250 -2.292110
C -2.008860 2.153710 -1.814840
C -0.698590 2.043340 -2.351080
C -0.254450 0.817420 -2.913570
C -0.942320 -0.423930 -2.864370
C -0.327630 -1.691520 -2.685850
C -2.237600 2.679600 -0.515780
C -2.603040 -1.231860 -1.304830
C -0.839680 -2.767080 -1.912910
C -1.888350 -2.425090 -1.018610
C 1.281170 -2.693800 -1.410780
C 0.082970 -3.330790 -0.992370
C 2.161750 -2.367610 -0.345550
C 3.132610 -1.349760 -0.540140
C 1.141230 0.784480 -2.653780
C 1.757560 -0.465490 -2.381300
C 1.064560 -1.704670 -2.406350
C 2.881590 -0.353850 -1.520760
C -2.883530 -0.847610 1.147920
C -2.114020 -2.002450 1.449060
C -3.149950 -0.516320 -0.206950
C -1.629250 -2.745510 0.340310
C -0.275730 -3.173730 0.372600
C 0.462070 -2.603970 1.443820
C 1.772870 -2.264130 1.016260
C -0.052180 -1.864490 2.541630
C -1.455880 -1.691190 2.668240
C 2.416030 -1.143670 1.605640
C 1.742590 -0.227240 2.456020
C 0.490260 -0.631100 2.989880
C 2.036810 1.131440 2.166470
C 3.411640 -0.704190 0.693480
C 3.728980 0.657310 0.444460
C 3.041730 1.584770 1.271460
C 1.477590 1.961110 -1.933470
C 2.561690 1.980140 -1.016490
C 3.389450 0.830110 -0.923480
C -1.168730 2.862930 0.400910
C 0.136690 2.955710 -0.150230
C 0.294540 2.631070 -1.523600
C 2.481920 2.471050 0.313570
C 1.173320 2.738580 0.795640
