52 

C -3.237950 -1.234940 0.698470
C -3.331420 -1.660630 -0.653040
C -2.381690 -2.565580 -1.196670
C -1.380470 -2.823880 -0.223330
C -1.214510 -2.382160 1.116060
C -2.200700 -1.499920 1.631420
C 0.953590 -2.886750 -0.390450
C -0.271540 -2.880660 -1.108500
C 1.053170 -2.706500 1.014580
C 0.212300 -1.196980 2.802960
C 0.001580 -2.207990 1.828300
C 2.371280 -2.267260 1.307990
C -3.252030 -0.457470 -1.403090
C -3.261210 0.635180 -0.496130
C -2.579640 1.867190 -0.680830
C -2.205240 -0.486290 -2.362210
C -0.004890 0.362570 -2.757950
C -1.364220 0.653110 -2.467410
C -1.659420 1.849780 -1.762230
C 2.208640 1.275640 -2.403740
C 0.820930 1.506580 -2.597090
C -0.473930 -2.047430 -2.240420
C -1.879910 -1.868090 -2.327250
C 1.983910 -2.157440 -1.040850
C 1.716010 -1.184600 -2.040020
C 0.408790 -0.980760 -2.555830
C 2.576240 -0.055260 -2.071960
C -2.222440 2.635100 0.458990
C 0.556270 2.636440 -1.778650
C -0.765680 2.855780 -1.308740
C -1.017440 3.252710 0.031220
C -2.079440 2.022530 1.732090
C -2.629370 0.725790 1.912450
C -3.377800 0.170980 0.840790
C -0.755480 2.221140 2.205530
C -1.965320 -0.390620 2.486120
C -0.703190 -0.150340 3.090870
C -0.170110 1.157350 2.941880
C 1.455390 2.717210 -0.682510
C 1.140450 2.562670 0.693520
C -0.166720 2.919490 1.118290
C 2.571950 2.100330 -1.306330
C 3.290850 1.265700 -0.410220
C 2.882510 1.011620 0.925880
C 1.764140 1.620840 1.554010
C 1.190690 0.895600 2.631800
C 2.931460 -2.093090 0.014810
C 3.665410 -0.877670 0.036760
C 3.560590 0.028000 -1.051890
C 1.440620 -0.485750 2.845860
C 3.305920 -0.296320 1.281440
C 2.489040 -1.104960 2.115230
