52 

C -1.162990 3.284760 0.886080
C -1.456260 3.381110 -0.500000
C -1.638520 -0.180020 -2.809820
C -1.328980 -1.549250 -2.595490
C -1.968390 -2.406760 -1.661520
C -0.691570 0.867220 -2.961740
C -1.232820 2.111770 -2.543830
C -0.602660 2.818240 -1.485410
C -2.600450 -1.747470 -0.574170
C -2.548790 -2.481110 0.640570
C -1.168650 -3.287060 -0.885670
C -1.460450 -3.382450 0.500770
C -2.734580 -0.334520 -0.619770
C -2.491350 0.380400 -1.822360
C -2.450170 -1.807310 1.886640
C -2.490580 -0.389330 1.822010
C -2.732410 0.341750 0.628890
C -2.597080 1.754140 0.571710
C -2.547410 2.484060 -0.645340
C -2.451160 1.798450 -1.885120
C -1.641720 0.183540 2.805730
C -1.325870 1.551610 2.593230
C -1.968510 2.410530 1.662800
C 0.045810 1.869350 2.408760
C 2.248490 1.106000 1.883590
C 1.014150 0.838060 2.532570
C 0.648260 -0.530010 2.637550
C -0.693870 -0.862360 2.961170
C 3.298620 0.227170 1.507650
C 3.252760 -1.348400 0.108850
C 2.679090 -1.043320 1.371520
C 1.390170 -1.428700 1.826100
C 0.086760 -2.770660 -1.302530
C 2.266510 -1.925360 -0.734320
C 1.060540 -2.533950 -0.296420
C 0.685030 -2.399330 1.066410
C -0.605780 -2.818210 1.484450
C -1.229370 -2.110170 2.545690
C 3.254220 1.346420 -0.095990
C 2.257570 1.932190 0.728690
C 4.243670 0.510870 0.486470
C 4.239520 -0.520790 -0.489270
C 3.295090 -0.211070 -1.503460
C 2.257930 -1.100560 -1.890210
C 0.089890 2.768220 1.310320
C 1.050950 2.539160 0.290340
C 0.689060 2.394390 -1.075140
C 2.677660 1.059810 -1.361660
C 1.388200 1.419690 -1.835190
C 0.646570 0.516130 -2.641410
C 1.014230 -0.850800 -2.528410
C 0.039640 -1.876060 -2.404310
