52 

C -0.509130 -2.474710 1.802010
C -1.156430 -2.922980 0.620180
C -2.499830 -2.477070 0.506480
C 0.892020 -2.359500 1.601950
C 1.342950 -2.461890 0.259270
C 2.655340 -1.934820 0.131320
C -2.751940 -2.300570 -0.879780
C -3.375150 -1.025160 -0.917660
C -1.599230 -2.310370 -1.709020
C -2.978470 0.120310 -1.657270
C -1.936240 0.030490 -2.617570
C -1.345670 -1.260830 -2.631380
C 0.619710 -2.446280 -0.962700
C -0.722360 -2.847620 -0.729790
C -0.005830 -0.842590 -2.846700
C 0.903550 -1.621460 -2.083250
C -3.500150 -0.565870 0.420190
C -3.488660 0.852530 0.487090
C -3.170170 1.261910 -0.834810
C -2.857700 1.618650 1.502660
C -2.276240 2.664340 0.737860
C -0.059730 3.055270 0.489450
C -1.052000 2.736020 1.453820
C -1.136380 1.201700 -2.547090
C -1.218890 2.248580 -1.591170
C -2.274330 2.347450 -0.646350
C -0.132310 2.864810 -0.915880
C -2.048200 0.808470 2.342180
C -1.987670 -0.609220 2.287200
C -2.735310 -1.343830 1.329170
C -0.825150 -1.355240 2.616510
C 0.233450 -0.456650 2.913820
C 0.234410 0.942300 2.669860
C -0.941780 1.695660 2.414030
C 2.459820 -0.665020 2.170120
C 1.267670 -1.349290 2.526520
C 3.300380 -1.186620 1.151390
C 2.444240 0.734840 1.932190
C 1.182020 2.531710 0.937120
C 1.301980 1.577020 1.981440
C 3.390190 0.908830 0.887520
C 4.143470 -0.236400 0.516810
C 4.077240 -0.334900 -0.898230
C 1.875510 2.456270 -0.299750
C 3.335970 0.777200 -1.377990
C 3.028090 1.626990 -0.282770
C 0.078060 0.572570 -2.928860
C 2.301230 0.424410 -2.284240
C 1.182150 1.291040 -2.398530
C 1.073930 2.357970 -1.467760
C 3.092750 -1.341530 -1.082400
C 2.168820 -0.976980 -2.097220
