52 

C -2.300770 2.225720 -0.541620
C -2.193620 2.245650 0.874250
C -1.151470 2.925150 1.558840
C -2.701630 1.052880 -1.234600
C -2.458570 1.136690 1.720710
C -3.019100 0.016930 1.051020
C -3.081130 -0.005680 -0.367450
C -0.697730 2.099060 2.620990
C 0.697350 1.925070 2.420940
C -1.457920 0.902290 2.700620
C -1.731840 -1.472190 2.395510
C -0.891330 -0.396910 2.787760
C 0.513550 -0.533680 2.632350
C 1.300310 0.643460 2.523340
C 2.576500 0.548320 1.907920
C -2.877000 -1.295330 1.574690
C 1.007430 2.756230 1.312110
C 3.034710 1.441610 0.903670
C 2.072400 2.382330 0.450400
C 3.796020 -0.552800 0.142420
C 3.484700 0.771530 -0.264640
C 1.012600 -1.717130 2.026630
C 2.288540 -1.740230 1.403770
C 3.184790 -0.638940 1.421260
C -0.254050 3.184220 -0.794980
C 0.712460 2.583100 -1.644110
C -0.134210 3.238530 0.618920
C 1.900440 2.230020 -0.950920
C 2.603610 1.059420 -1.340410
C 1.945520 0.142900 -2.202610
C 2.335410 -1.167690 -1.819400
C 3.227500 -1.488230 -0.762120
C -1.442340 2.839480 -1.491790
C -1.208510 2.028270 -2.633580
C -1.590600 -0.432860 -2.782480
C -2.030840 0.881570 -2.474420
C 0.707810 0.435400 -2.834270
C 0.182300 1.742850 -2.658680
C -0.205390 -0.636080 -3.019860
C 1.423960 -2.819090 -0.580210
C 1.330200 -2.170480 -1.839970
C 0.077340 -1.907660 -2.454540
C 0.274480 -3.163220 0.179220
C 2.548530 -2.344020 0.145090
C -1.263220 -2.680160 1.814450
C 0.124200 -2.698420 1.512560
C -2.890870 -2.104910 0.408150
C -1.874110 -3.078240 0.595940
C -1.034140 -2.456590 -1.761920
C -2.057850 -1.492880 -1.961210
C -2.843130 -1.340980 -0.787900
C -0.971280 -3.104280 -0.499800
