52 

C -2.705530 -0.933980 1.724180
C -3.179350 0.218230 1.042660
C -3.335370 0.149710 -0.367100
C -1.404120 2.894750 1.302880
C -2.973710 1.598250 1.306660
C -1.802810 1.781320 2.088940
C -1.590660 -0.667260 2.562290
C 2.433040 -0.260790 2.246760
C 1.048090 -0.417820 2.518550
C 0.318710 0.800570 2.531810
C -1.092960 0.662210 2.599090
C 0.782060 1.945530 1.831180
C -0.016160 2.794720 1.019890
C -3.001340 2.309410 0.077870
C -3.060580 1.389610 -1.002390
C -2.147730 -0.392740 -2.227110
C -1.087700 1.866630 -2.195860
C -2.221220 1.018370 -2.085960
C -0.038720 1.161070 -2.842700
C -0.003430 -0.236410 -3.092360
C -1.014810 -1.133130 -2.657020
C -0.856350 -2.356420 -1.953500
C -1.862290 3.152090 -0.016320
C -1.040180 2.786140 -1.114790
C -2.842650 -0.948520 -1.120480
C -1.623200 -3.000840 -0.946950
C -2.607260 -2.142580 -0.388870
C 0.263160 -3.021420 -0.005970
C -1.071030 -3.400330 0.298820
C 3.493210 -0.723150 -0.735200
C 2.456950 -1.690400 -0.819540
C 0.405020 -2.641610 -1.366910
C 1.283640 -0.704220 -2.716760
C 1.448010 -1.787980 -1.814050
C -2.657610 -2.171790 1.029940
C -1.533850 -2.877580 1.535340
C 2.269090 -1.968120 0.560330
C 1.003510 -2.402530 1.035840
C 0.493990 -1.669300 2.140010
C -0.897480 -1.883690 2.325060
C 3.102860 -1.118650 1.334690
C 4.119620 -0.544560 0.526600
C 4.073370 0.845810 0.811440
C 2.052150 0.459150 -2.447660
C 3.403480 1.222720 -0.382560
C 3.115880 0.406550 -1.508420
C 0.173000 2.890510 -0.384220
C 2.297990 2.059760 -0.076450
C 1.286070 2.303680 -1.042380
C 1.187240 1.568450 -2.253190
C 3.053530 0.934160 1.795590
C 2.104420 1.876380 1.318300
