52 

C -3.270550 -1.422210 -0.723860
C -4.149380 -0.545740 -0.033980
C -2.373160 -1.952940 0.240280
C -1.129300 -2.486970 -0.188890
C 0.982800 -3.228660 0.578860
C -0.330440 -2.823260 0.935970
C -3.464510 -0.438370 1.205340
C -3.163530 0.900240 1.571410
C -0.250270 2.795670 1.334060
C -1.579730 2.296770 1.319890
C -1.924570 1.224620 2.184810
C -2.406090 -1.332250 1.517050
C -0.329170 -2.100780 2.158470
C -1.295280 -1.080780 2.365210
C -0.991380 0.271860 2.672570
C 0.344990 0.751500 2.696340
C 0.568180 2.080190 2.247710
C -1.965990 1.007150 -2.175650
C -1.497960 1.960240 -1.232690
C -2.136120 2.104060 0.027680
C 1.625880 3.200210 0.335090
C 0.258030 2.983180 0.021440
C -0.137700 2.366150 -1.194780
C 2.383710 2.706330 -0.759560
C 1.972630 1.905380 -1.857730
C 0.612330 1.594860 -2.121640
C 1.007960 -1.711110 2.435410
C 1.263360 -0.316620 2.516810
C 1.735010 2.567700 1.601750
C -3.348830 1.401390 0.255760
C -3.227920 0.360900 -2.096140
C -3.799980 0.586700 -0.816230
C -1.577830 -1.224360 -2.317590
C -2.959930 -1.032940 -2.053680
C -0.786960 -2.079640 -1.505480
C 2.378430 -0.555380 -2.239340
C 1.004280 -0.854790 -2.435790
C 0.613790 -2.024830 -1.732170
C 1.274680 -2.800530 -0.743270
C 0.263550 0.333360 -2.672540
C -1.121360 0.038440 -2.779560
C 2.815700 0.788170 -2.097530
C 3.049730 -1.436510 -1.350860
C 2.649720 -2.520690 -0.525650
C 3.493430 0.789880 -0.849690
C 3.484470 -0.536370 -0.342310
C 3.137800 1.822930 0.057370
C 1.674480 -2.739900 1.718650
C 2.719180 -2.282600 0.872530
C 2.967810 -0.885840 0.933370
C 2.367060 0.119140 1.736820
C 2.568910 1.457050 1.305940
