52 

C -3.066570 0.178540 1.826190
C -2.753910 -1.172020 1.518330
C -1.595660 -1.854850 1.975190
C -2.058560 1.054870 2.308320
C -0.852700 0.429230 2.721900
C -0.781560 -0.988710 2.752110
C 1.502260 -0.850120 2.750370
C 0.410220 -1.743360 2.588880
C 1.173620 2.735370 0.560230
C 0.152190 2.378920 1.480130
C 0.220700 1.303030 2.404410
C 1.412130 0.561010 2.619650
C -3.206660 -1.421920 0.195820
C -0.980600 -2.675830 0.993260
C -1.247550 -2.703480 -0.401210
C -2.449460 -2.070660 -0.815250
C -0.348430 -2.640420 -1.498520
C 0.349020 -2.641460 1.490620
C 2.446070 -2.067650 0.827630
C 1.251040 -2.701420 0.395530
C 0.980050 -2.675760 -0.998160
C 2.625940 -1.286960 2.000070
C -3.729670 -0.201500 -0.307630
C -3.270730 -0.077360 -1.645700
C -2.625660 -1.294320 -1.991130
C -0.415110 -1.740950 -2.595330
C -1.508910 -0.848030 -2.746210
C -3.069080 2.068410 0.400400
C -2.410720 2.094740 -0.857520
C -3.646940 0.804340 0.691300
C -2.479580 1.083630 -1.852220
C -1.406330 0.562880 -2.622530
C -1.178960 2.735680 -0.560160
C -0.159670 2.377940 -1.481910
C -0.213270 1.302420 -2.407590
C 2.059380 1.065790 -2.302200
C 0.860970 0.426680 -2.716740
C 0.780500 -0.990650 -2.750290
C -1.061950 2.767650 0.854660
C -2.196820 2.221370 1.510440
C 2.197590 2.231620 -1.503330
C 1.053430 2.766510 -0.854350
C 1.600500 -1.851950 -1.974290
C 2.757330 -1.169210 -1.513810
C 3.065020 0.179820 -1.832970
C 3.202160 -1.428760 -0.190490
C 3.272960 -0.075230 1.640210
C 3.730730 -0.206450 0.302430
C 3.072900 2.063760 -0.397850
C 2.407970 2.098870 0.856370
C 2.482960 1.086140 1.848920
C 3.647420 0.799860 -0.695970
