52 

C 0.153900 2.472780 -2.375790
C -0.721810 1.424890 -2.765190
C -2.631650 -0.565810 -2.231050
C 1.409340 1.929940 -1.994050
C 1.759200 0.560770 -2.133860
C 0.822090 -0.448990 -2.478580
C -0.445350 0.038000 -2.894470
C -1.418960 -0.993890 -2.833250
C 2.096710 -2.002410 -1.080960
C 0.979920 -1.744690 -1.919340
C 2.912390 0.129050 -1.426590
C 3.234120 -1.164530 -0.937120
C -2.993900 -1.503410 -1.227970
C -3.139190 -0.788060 -0.009910
C -2.860060 -1.149150 1.334780
C -2.754880 -0.281800 2.454200
C -2.211770 -2.688150 -1.260950
C -0.122340 -2.595930 -1.642050
C -1.339430 -2.314460 -2.317270
C -3.006450 0.601740 -0.269330
C -2.702710 1.109830 2.176540
C -2.720100 1.483160 0.806590
C -1.814070 1.840810 -1.958690
C -1.531810 2.766110 -0.919150
C -2.624460 0.721530 -1.631740
C -1.875790 2.565790 0.443950
C -1.062270 2.524140 1.607110
C -0.244360 3.257730 -1.261470
C 0.571520 3.045650 -0.118720
C 0.293480 2.559050 1.186050
C -1.536850 -0.624660 3.098650
C -0.786420 0.580820 3.112740
C -1.521760 1.716180 2.680660
C 0.549920 0.496620 2.639850
C 1.056910 1.595180 1.896450
C 2.355890 1.399580 1.357160
C 2.675810 1.844450 0.047110
C 1.736990 2.544090 -0.756340
C 3.559080 0.810490 -0.361760
C 4.211000 -0.007690 0.598430
C 1.093690 -0.787440 2.371490
C 2.446020 -0.876380 1.947470
C 3.188930 0.265150 1.545710
C -0.276100 -2.959880 -0.278090
C -1.653150 -2.817680 0.038140
C -1.933210 -2.224330 1.297480
C 0.625990 -2.583750 0.752070
C 0.277250 -1.858980 1.922360
C -1.080510 -1.715780 2.312720
C 2.979040 -1.788120 0.998230
C 1.951050 -2.435940 0.263400
C 4.069140 -1.361590 0.194390
