52 

C 2.613050 0.920010 1.764720
C 1.487110 1.268850 2.556640
C 2.836110 -0.442460 1.432390
C 0.769740 0.157410 3.073030
C -0.639150 0.303630 2.972060
C -1.137570 1.400800 2.220830
C -2.426390 1.167160 1.672290
C -4.068880 -0.218530 0.676960
C -3.168760 -0.040120 1.760660
C 2.872770 1.978140 0.854030
C 1.842640 2.955120 0.826010
C 0.145500 3.009010 -0.930550
C 1.510560 3.091150 -0.547940
C -0.371500 2.360650 1.507850
C 1.011110 2.392260 1.830100
C -0.687650 2.829580 0.205320
C 3.095630 1.616580 -0.500990
C 3.122090 0.244740 -0.866830
C 3.149950 -0.800070 0.094460
C 2.273380 2.292740 -1.440740
C 2.871500 -2.156420 -0.220520
C 2.438620 0.001270 -2.087500
C 1.984860 -1.327850 -2.297430
C 2.318940 -2.450810 -1.495070
C -0.260440 2.211000 -2.032770
C 0.425450 1.120150 -2.629540
C 1.795670 1.252500 -2.281080
C 2.201980 -2.587060 0.955380
C 2.135400 -1.567660 1.941720
C 1.041470 -1.203150 2.770510
C 1.155420 -3.120610 -1.032430
C 0.998350 -3.071240 0.378040
C -1.227890 -2.443150 0.183800
C -0.147850 -2.625000 1.087700
C -0.099800 -1.916290 2.317280
C -2.355270 -1.863230 0.823530
C -2.323280 -1.144310 2.047690
C -1.106120 -1.021920 2.768770
C 0.175830 -2.489400 -1.843880
C -1.953290 -1.421450 -1.921630
C -1.087280 -2.303190 -1.222310
C -1.637540 1.983170 -1.771730
C -2.257700 0.793610 -2.237380
C -1.476600 -0.311370 -2.667920
C -0.075910 -0.187290 -2.865620
C 0.613720 -1.410980 -2.657340
C -3.698700 0.781190 -0.261090
C -2.781330 1.651230 0.385370
C -1.875970 2.380990 -0.429590
C -3.422900 0.322610 -1.576400
C -3.194780 -1.058150 -1.335840
C -3.404290 -1.303830 0.046970
