52 

C 1.714040 -1.631670 -2.525990
C 0.497780 -2.364320 -2.546550
C 1.488740 -0.255110 -2.792110
C 2.117890 0.737020 -1.994340
C 3.020960 0.382960 -0.957200
C 1.526670 2.005040 -1.751240
C 0.118590 -0.105780 -3.133940
C -1.826030 1.074280 -2.274540
C -0.495920 1.121490 -2.769600
C 0.201450 2.225370 -2.211420
C -3.256810 0.005750 -0.872430
C -2.361190 -0.201570 -1.954720
C -0.465600 -1.373540 -2.873270
C -1.829080 -2.313360 -0.990870
C -1.641090 -1.419250 -2.077910
C 1.747580 2.673520 -0.518030
C 2.512740 2.148660 0.556940
C 3.373640 1.065650 0.236950
C 0.540260 3.325830 -0.152920
C -0.303760 3.175570 -1.284950
C 3.718050 0.347740 1.412710
C 1.985620 1.810030 1.831280
C 2.662650 0.657560 2.310810
C 3.294160 -0.892790 0.866950
C 3.093030 -0.971410 -0.536560
C 2.307930 -1.903740 -1.265120
C 2.281730 -1.505160 1.652100
C 0.198300 -2.592360 1.696210
C 1.422000 -2.425050 0.995440
C 1.490110 -2.678040 -0.400200
C 0.009430 2.870760 1.083040
C 0.584310 1.958340 2.006900
C -0.116250 0.880650 2.610460
C 0.473700 -0.395960 2.807410
C 1.868330 -0.493180 2.558440
C -0.258640 -1.594220 2.596980
C -0.845980 -3.142820 0.906950
C -0.767610 -3.125290 -0.510790
C 0.420520 -2.997520 -1.277880
C -2.281520 -0.279920 2.395550
C -1.667200 -1.559950 2.420270
C -2.008810 -2.514310 1.425830
C -1.375110 2.807180 0.774080
C -2.100620 1.890270 1.579930
C -1.525950 0.921390 2.444480
C -3.277200 1.360030 -0.445890
C -2.339290 1.982730 -1.311350
C -1.541370 2.939490 -0.629940
C -3.240550 1.300470 0.972390
C -2.561720 -2.060760 0.199040
C -3.309180 -0.036350 1.446330
C -3.273730 -0.834350 0.272300
