52 

C 2.482140 2.368760 -0.310510
C 2.983480 1.126360 0.160260
C 2.991670 0.710780 1.518090
C 1.986100 2.431570 -1.639600
C 2.983360 -1.121980 0.161580
C 2.990050 -0.709240 1.520290
C 2.483590 -2.365320 -0.308330
C 1.988130 -2.434600 -1.637310
C 1.696530 1.249850 -2.371830
C 2.221420 -0.002100 -1.955170
C 2.888140 0.001690 -0.701420
C 1.695350 -1.254080 -2.370190
C 1.806200 -3.073310 0.719460
C 1.406680 -2.353700 1.876630
C 1.980800 -1.168340 2.407480
C 0.787300 -3.178020 -1.489770
C 0.703570 -3.440180 -0.096670
C 1.410520 2.352750 1.877700
C 1.983760 1.166860 2.408340
C 1.300830 -0.000030 2.842420
C -0.012250 -2.306350 1.906680
C -2.094250 -1.153750 2.051400
C -0.738670 -1.223270 2.468650
C -0.118960 0.006150 2.816420
C -0.746180 1.229920 2.462170
C -0.008550 2.307250 1.903840
C -2.449730 -1.761410 0.818160
C -0.367970 -2.920350 0.676680
C -1.499130 -2.410140 -0.013700
C 1.807320 3.074150 0.720740
C 0.705810 3.440340 -0.097190
C 0.785650 3.175180 -1.489940
C -2.448840 1.761690 0.818450
C -1.499180 2.410800 -0.014220
C -0.367140 2.921130 0.674600
C -4.021640 0.007160 1.160170
C -2.931300 -0.006820 2.069780
C -2.102590 1.146120 2.050360
C -3.530840 1.012310 0.285410
C -3.371590 0.707210 -1.092270
C -2.239820 1.087760 -1.860850
C -1.379060 2.118220 -1.398580
C -0.173240 2.335740 -2.116290
C -3.369140 -0.712730 -1.079360
C -3.538540 -1.012680 0.298230
C -0.177560 -2.340630 -2.109660
C -2.241770 -1.079940 -1.860800
C -1.384950 -2.113280 -1.397650
C 0.358950 1.241650 -2.848530
C -1.663490 0.003370 -2.573870
C -0.307760 -0.003410 -2.996190
C 0.356770 -1.249070 -2.844110
