52 

C -2.634660 -1.237820 1.318510
C -2.218190 -2.540330 0.935670
C -2.063860 -0.467730 2.366220
C -0.460000 -3.433150 0.224940
C 0.862090 -3.047120 -0.120940
C 1.702320 -2.545530 0.908130
C -0.918300 -2.832240 1.427180
C -0.789030 -0.823730 2.880600
C -0.204990 -1.991360 2.321970
C 1.198250 -1.971580 2.105220
C 2.862540 -1.849920 0.476280
C 3.118410 -0.900820 1.501090
C 3.617100 0.152820 0.690140
C -0.045930 0.377680 3.025180
C 1.302610 0.418970 2.582130
C 1.976530 -0.807270 2.340030
C 2.831640 -1.333940 -0.846340
C 1.770980 -1.484280 -1.778550
C 0.868400 -2.527850 -1.442620
C -0.446440 -2.572620 -1.977100
C -0.912800 -1.467440 -2.737120
C 3.615350 -0.159480 -0.695120
C 3.121820 0.901720 -1.499320
C 1.977760 0.805890 -2.335060
C 1.299140 -0.415930 -2.586330
C -0.049980 -0.377670 -3.027770
C -2.360250 -2.727290 -0.464800
C -2.706890 -1.491750 -1.072890
C -1.172950 -3.297360 -0.995590
C -2.143740 -0.946950 -2.257180
C -2.059990 0.466290 -2.367600
C -3.033450 -0.705770 0.063780
C -3.034180 0.708530 -0.063550
C -2.634350 1.234530 -1.320490
C -2.223100 2.537940 -0.935240
C 1.200300 1.971490 -2.103990
C -0.203360 1.994300 -2.317840
C -0.785960 0.827730 -2.880090
C -0.922440 2.831110 -1.423900
C 1.701290 2.546260 -0.906020
C 0.861660 3.044350 0.125200
C -0.457810 3.434790 -0.225520
C 2.863740 1.852750 -0.476880
C -0.910820 1.466120 2.735800
C -0.452070 2.575540 1.977370
C 0.864190 2.525200 1.446920
C 1.774900 1.485310 1.771990
C 2.837660 1.329900 0.843120
C -2.360750 2.727910 0.465260
C -2.705810 1.492320 1.074120
C -2.142550 0.945930 2.257590
C -1.173980 3.301540 0.993400
