52 

C 2.601560 0.736540 -2.294930
C 0.598330 1.908200 -1.719490
C 2.018360 1.897770 -1.722210
C 2.607830 2.364590 -0.517610
C -1.290120 2.579720 -0.563440
C 0.129450 2.549160 -0.542190
C 0.098890 0.777290 -2.418160
C -3.198230 1.695390 -1.100870
C -1.882450 1.833790 -1.616650
C 3.615190 1.388780 -0.295210
C 3.613320 0.949280 1.055070
C 0.599170 2.441520 0.793610
C 2.019040 2.443060 0.772220
C 2.598390 1.627840 1.780290
C 3.613870 -0.439860 1.349560
C 0.094900 1.695410 1.891620
C 2.021550 0.550000 2.502790
C 2.606620 -0.729130 2.307790
C 3.613760 -1.391700 0.295790
C 3.612350 -0.953290 -1.054850
C 3.616360 0.436080 -1.348190
C 2.594640 -2.356680 0.511750
C 0.600570 -2.449170 -0.792680
C 2.020570 -2.440680 -0.784360
C -1.872950 2.337500 0.708620
C -1.324010 1.675130 1.838410
C 0.601810 0.525730 2.517250
C -1.877240 0.488780 2.388880
C -1.298860 -0.802530 2.509280
C 0.120810 -0.809800 2.478120
C 0.609920 -1.907610 1.721760
C 2.029820 -1.890090 1.728180
C -1.880630 -1.782160 1.661740
C -1.325500 -2.430390 0.526770
C 0.093330 -2.487950 0.533150
C -1.879470 -2.315990 -0.775730
C 2.603220 -1.627440 -1.792130
C -1.304080 -1.770230 -1.953670
C 0.115560 -1.748460 -1.928600
C -1.320220 0.767690 -2.367500
C -4.269900 0.006570 0.015510
C -3.723820 0.383570 -1.239920
C 0.603120 -0.547170 -2.507930
C 2.023100 -0.543550 -2.502820
C -3.192000 -0.760080 -1.892340
C -1.874520 -0.539650 -2.374060
C -3.197360 -1.254740 1.594940
C -3.714710 -1.274850 0.272680
C -3.196510 -1.809970 -0.936250
C -3.687030 0.885070 0.966780
C -3.190200 2.024590 0.280430
C -3.195610 0.094100 2.038810
