52 

C -2.976180 -0.845350 1.221810
C -2.570350 -2.054090 0.596650
C -2.621660 -2.196750 -0.815270
C -2.271420 -0.245950 2.299090
C -1.398540 -2.679640 1.098680
C -0.708920 -2.101790 2.197340
C -1.116960 -0.890830 2.816640
C -0.707670 -3.198370 -0.028310
C -1.418870 -2.843200 -1.204980
C 0.711960 -3.176000 -0.053710
C 1.388930 -2.744230 1.117520
C 0.711070 -2.105850 2.189650
C 1.341510 -2.625920 -1.201570
C 0.637590 -1.856240 -2.165240
C -0.768770 -2.051500 -2.188380
C -1.622200 -0.978650 -2.558710
C -1.098850 0.262560 -3.008160
C 2.645710 -2.298770 -0.745010
C 3.158480 -1.061110 -1.215880
C 2.395580 -0.228360 -2.076680
C 1.148470 -0.616870 -2.633700
C 0.308310 0.424810 -3.108540
C 2.645700 -2.253820 0.674290
C -3.140250 0.160440 -1.042030
C -2.534660 1.393560 -1.401480
C -2.708970 -1.049460 -1.647470
C -1.615130 1.475590 -2.480460
C -0.576330 2.439660 -2.391460
C 0.584580 1.802610 -2.904190
C -3.429740 0.178000 0.348040
C -2.913700 1.386840 0.885480
C -1.094820 1.952260 2.417520
C -2.233620 1.161110 2.111450
C -0.310870 2.981590 -1.106030
C -1.116920 2.822660 0.052200
C -2.313650 2.096960 -0.187880
C -0.632550 2.812960 1.387010
C 1.091560 2.900110 -0.898700
C 1.560280 2.803830 0.438280
C 0.764920 2.935490 1.607250
C 3.051030 1.028060 -0.294750
C 2.554340 1.107730 -1.622690
C 1.600490 2.104440 -1.959050
C 2.512670 1.802980 0.766450
C 3.469340 -0.307280 -0.053320
C 1.133270 -0.859360 2.723000
C 2.160320 1.203140 2.004380
C 2.225540 -0.213020 2.086070
C 2.959260 -0.939620 1.111330
C 1.138720 1.990200 2.598780
C -0.012340 1.305170 3.070180
C 0.014320 -0.110730 3.174590
