52 

C -2.824990 -1.166160 -1.526710
C -2.631900 -2.014450 -0.404360
C -1.506160 -2.877590 -0.339410
C -0.706400 -2.707490 -1.500460
C -0.675980 -1.603690 -2.393370
C -1.838510 -0.792540 -2.477370
C -3.112050 -1.367540 0.765010
C 0.308230 -3.302500 0.590250
C -0.967300 -2.809200 0.972640
C 0.357360 0.626640 -2.943630
C 0.434100 -0.767590 -2.685210
C 0.417320 -3.252500 -0.824690
C -3.649500 -0.097110 0.428010
C -3.494100 0.867650 1.458320
C -1.124240 -1.790670 1.949630
C -2.378350 -1.124590 1.956290
C -2.685090 0.186870 2.406210
C -2.993440 2.064820 0.881630
C -1.913950 2.254400 1.784540
C 1.907790 0.950320 2.273010
C 0.586440 1.458400 2.161110
C -0.354550 0.506920 2.636350
C -1.633580 1.122420 2.594800
C 3.330620 -0.540740 1.538870
C 2.133500 -0.451450 2.297440
C -0.162020 -0.891340 2.480560
C 1.275330 -2.514940 1.269190
C 1.114530 -1.432820 2.174490
C -2.607360 2.090520 -0.484660
C -2.758030 1.133470 -1.522850
C -3.410630 0.000750 -0.968340
C -1.341540 2.728580 -0.568610
C -1.919140 0.623390 -2.548770
C -0.778950 1.450570 -2.728180
C -0.595930 2.460720 -1.747110
C 0.789130 2.462430 -1.433930
C 2.497460 2.166970 0.220950
C 1.155120 2.532540 -0.063630
C 0.358430 2.375670 1.101320
C -0.989980 2.709730 0.807070
C 2.887000 1.557190 1.442780
C 3.222440 1.569390 -0.843820
C 3.998690 0.687160 1.289180
C 4.068210 0.680410 -0.129110
C 2.161260 -2.373820 0.168430
C 3.459230 -0.486070 -0.662870
C 3.137030 -1.368870 0.401690
C 1.282150 1.569510 -2.421870
C 2.503060 1.026560 -1.941220
C 2.584330 -0.381520 -1.776450
C 1.550150 -1.326620 -2.008160
C 1.534720 -2.422250 -1.104970
