52 

C 2.962010 1.133600 -1.514150
C 2.399360 2.159380 -0.709330
C 2.398310 2.159500 0.710710
C 1.308760 2.486540 -1.557870
C 1.308960 2.483100 1.562230
C 0.294470 2.992290 0.708960
C 0.286500 2.990920 -0.711040
C -0.967490 2.530610 -1.192790
C -2.274410 0.714580 -1.961790
C -1.076850 1.461040 -2.120470
C -3.335670 1.079560 -1.091750
C 3.259520 0.000890 -0.711080
C 2.962600 1.132210 1.512400
C 3.260180 -0.000190 0.708950
C 2.962870 -1.131570 1.513940
C 1.308830 -2.483200 1.559980
C 0.291080 -2.991810 0.710230
C 1.162680 1.492200 2.568800
C 2.338850 0.710320 2.716300
C 2.337390 -0.709690 2.716960
C -0.016110 -0.710450 2.675780
C 1.163140 -1.494260 2.568580
C -0.017410 0.709580 2.675600
C 2.399610 -2.158300 0.710810
C 2.399490 -2.160110 -0.709210
C 2.962290 -1.133150 -1.512350
C 1.310090 -2.482590 -1.561080
C 0.293700 -2.991250 -0.709800
C 2.338920 -0.710030 -2.716010
C 2.335900 0.709990 -2.716220
C 1.163170 -1.492480 -2.568340
C -0.010000 0.707380 -2.677530
C 1.164210 1.498280 -2.567290
C -3.326840 -1.082500 -1.096650
C -2.273570 -0.705410 -1.971240
C -0.018740 -0.712610 -2.675010
C -0.963680 -2.537060 -1.188500
C -1.083200 -1.466460 -2.113680
C -1.733910 -2.634570 0.000490
C -3.335760 -1.074800 1.089100
C -2.949860 -1.901160 0.000680
C -0.961250 2.535560 1.189610
C -1.081080 1.464750 2.114530
C -2.273240 0.706750 1.970880
C -2.278690 -0.713240 1.965650
C -1.081630 -1.462530 2.114080
C -0.964710 -2.534280 1.189910
C -2.948630 1.899720 0.000940
C -1.731140 2.630580 0.000220
C -3.328530 1.082060 1.097990
C -4.168230 -0.005760 -0.710530
C -4.172240 0.008030 0.709400
