52 

C 2.208310 -2.679360 -0.494180
C 0.913810 -3.261780 -0.454380
C -0.924600 -2.853030 1.089670
C 0.463030 -3.068240 0.878250
C -2.836480 -2.084320 0.385930
C -1.650410 -2.680290 -0.118590
C 2.403830 -2.135320 0.802860
C 3.128710 -0.923200 0.950610
C 3.469770 -0.249210 -0.251840
C 1.286940 -2.229600 1.674730
C 3.077430 1.350380 1.394800
C 3.341720 1.139510 0.015600
C 0.884570 -1.154040 2.510060
C 1.688400 0.005820 2.668590
C 2.915950 0.056230 1.956540
C 1.232630 0.590380 -2.898730
C 2.384410 0.620430 -2.068610
C 2.603260 1.629630 -1.093880
C 1.945540 2.147170 1.711670
C 1.379730 2.844260 0.611460
C 1.642990 2.623130 -0.766310
C 0.531360 2.624380 -1.649900
C 0.348230 1.682940 -2.697100
C -1.329380 -1.926810 2.087050
C -0.507410 -0.937860 2.689410
C -0.148980 1.564230 2.709660
C 1.255450 1.358230 2.669680
C 2.251770 -1.848210 -1.644760
C 1.042010 -1.854800 -2.388360
C 2.879350 -0.582730 -1.499490
C 0.588460 -0.668890 -3.024290
C -0.791050 -0.344400 -2.934050
C -1.575010 -1.217110 -2.133840
C -2.749090 -0.611270 -1.613250
C -1.946710 1.644020 -2.105100
C -0.916890 1.069520 -2.896220
C -2.985390 0.788410 -1.651780
C -1.106910 -2.327160 -1.382090
C 0.246580 -2.708690 -1.579270
C -3.389880 -1.061250 -0.428640
C -3.669230 0.006880 0.464390
C -1.996810 1.980500 1.481690
C -2.482460 2.115070 0.154080
C -3.394220 1.144720 -0.339410
C -0.694080 2.470920 1.762430
C -0.025780 3.043370 0.647920
C -0.455130 3.012970 -0.705280
C -1.750660 2.510060 -0.996950
C -0.952150 0.401370 2.847960
C -3.002600 -0.218540 1.697780
C -2.656990 -1.595820 1.707150
C -2.175910 0.797390 2.246290
