52 

C -1.889230 -1.424450 2.082110
C -0.847640 -2.359410 1.842270
C -1.735630 -0.114600 2.608630
C -0.482920 0.514020 2.836840
C -2.727490 0.723110 2.033380
C -0.371260 1.859340 2.396160
C -2.717270 -1.985190 -0.270600
C -1.532650 -2.708240 -0.571220
C -2.828430 -1.397640 1.017380
C -0.715280 -2.960090 0.562360
C 0.663370 -2.928580 0.223480
C 0.996750 -2.444600 -1.069290
C 2.323080 -1.943670 -1.149560
C 2.465580 -1.948490 1.356340
C 1.196700 -2.571770 1.490260
C 3.049760 -1.843500 0.066320
C 1.742600 0.118950 2.607520
C 0.493330 -0.517210 2.833630
C 0.362520 -1.860790 2.393100
C 2.727300 -0.728540 2.034320
C -3.164650 -1.355310 -1.462050
C -2.110290 -1.306390 -2.411980
C 1.774360 -0.049540 -2.676160
C 0.444930 -0.548560 -2.661890
C 0.194610 -1.806290 -2.051980
C -1.156330 -2.187630 -1.837650
C 2.710920 -0.897980 -2.028530
C -3.586100 -0.002940 -1.362480
C -3.705430 0.595670 -0.080340
C -3.421710 -0.111440 1.117950
C -2.713080 0.892580 -2.035030
C 1.159080 2.191730 -1.838660
C -0.194080 1.811940 -2.041840
C -0.445580 0.557550 -2.658090
C -1.770350 0.046640 -2.676990
C 2.107160 1.306220 -2.416110
C -3.042500 1.842800 0.066700
C -1.200050 2.573490 1.490870
C -2.467500 1.946500 1.360950
C -1.004230 2.441930 -1.060390
C -2.329360 1.940850 -1.157330
C -0.657450 2.928890 0.227650
C 2.717010 1.984110 -0.272740
C 1.533570 2.710120 -0.570790
C 0.721100 2.958540 0.567020
C 2.831270 1.395900 1.014670
C 3.161850 1.357170 -1.466670
C 3.420530 0.108240 1.120180
C 3.704080 -0.592010 -0.082180
C 3.583160 0.004930 -1.364930
C 0.840700 2.355290 1.846950
C 1.891190 1.428330 2.078450
