52 

C -2.250270 -2.739980 0.549360
C -2.759140 -2.255800 -0.684800
C -0.838160 -2.880600 0.497680
C -0.283460 -2.616180 -0.782560
C 1.128790 -2.609800 -0.633970
C 2.932410 -2.079080 0.372210
C 1.607120 -2.473040 0.696080
C -3.504480 -1.142020 -0.215350
C -3.585100 -0.200870 -1.275630
C -0.724930 -1.806240 -1.862200
C -2.140720 -1.699690 -1.835790
C -2.702980 -0.500290 -2.347390
C -3.462750 1.158760 -0.884630
C -2.529880 1.784550 -1.753300
C 1.409750 1.687920 -1.987080
C -0.006010 1.798290 -1.988090
C 1.826750 -1.852800 -1.611870
C 1.303390 -0.793630 -2.399760
C -0.109860 -0.694760 -2.496880
C -0.587300 0.640590 -2.569850
C -2.004540 0.721780 -2.534970
C 1.985990 0.451420 -2.381440
C -3.215440 1.456790 0.481550
C -2.922210 0.505470 1.494200
C -3.127800 -0.849440 1.122170
C -2.286190 2.525620 0.584120
C -0.261590 2.612490 1.694880
C -1.617500 2.202520 1.794470
C -0.455360 2.611770 -0.914400
C -1.867570 2.568800 -0.772100
C 0.094400 2.926380 0.356500
C -2.424960 -1.936030 1.706770
C -1.288860 -1.485450 2.429770
C -1.011440 -0.132550 2.760270
C -1.871020 0.921920 2.353280
C 0.919980 -1.972840 1.833680
C -0.430790 -2.406600 1.772770
C 3.350130 -0.958100 1.137290
C 1.200870 -0.716400 2.432810
C 0.564120 1.703320 2.407660
C 0.324040 0.350090 2.764840
C 2.479520 -0.260650 2.015970
C 4.151060 -0.257340 0.197160
C 1.712910 2.083910 1.664780
C 3.552830 1.001490 0.469010
C 2.716360 1.080460 1.613780
C 3.268310 1.516790 -0.823240
C 2.045750 2.238860 -0.843220
C 1.490670 2.670050 0.390620
C 3.115150 -1.837200 -1.015060
C 3.791500 -0.594340 -1.134590
C 3.298530 0.531690 -1.845530
