52 

C 2.260990 2.408280 -1.020910
C 1.923030 1.630900 -2.160220
C 2.412300 0.299810 -2.233570
C 1.212070 3.233340 -0.535630
C -0.572890 -1.721820 -2.541510
C 1.579650 -0.813560 -2.522740
C 0.215620 -0.579280 -2.840690
C -1.031350 2.952760 -0.845120
C 0.224460 2.922030 -1.507360
C 0.544450 1.868570 -2.404190
C -1.891140 1.920620 -1.305510
C -1.598670 0.877370 -2.223470
C -0.271840 0.748330 -2.712670
C -1.211350 3.233590 0.535160
C -0.216930 -2.596850 -1.481250
C 1.055510 -2.599630 -0.850830
C 1.974020 -1.828460 -1.611170
C 3.132810 -1.505380 -0.856680
C 3.327310 -1.729950 0.531920
C 1.263350 -2.765080 0.544130
C 2.387550 -2.421940 1.340910
C -2.389760 -2.419640 -1.341380
C -1.268310 -2.765120 -0.541700
C -1.986910 -1.628920 -2.449930
C -2.399610 -0.294820 -2.192510
C -3.340920 -0.443670 -1.139800
C 3.327490 0.469590 0.047900
C 3.312960 -0.147490 -1.230960
C 2.693370 1.735840 0.152700
C 1.999280 -1.621010 2.447340
C 2.405940 -0.284710 2.191500
C 3.340900 -0.444280 1.134680
C 0.267680 0.736240 2.718750
C 1.593060 0.879050 2.229310
C 1.886310 1.918000 1.306800
C -0.533380 1.865750 2.403950
C -0.224130 2.922590 1.507340
C 1.031440 2.953460 0.844770
C 0.586000 -1.718850 2.544990
C -1.588550 -0.814020 2.516030
C -0.224100 -0.590420 2.839710
C -3.330920 -1.727860 -0.533860
C -3.140990 -1.502040 0.855160
C -1.979710 -1.829600 1.603860
C -1.052630 -2.598750 0.851960
C 0.216790 -2.592660 1.488300
C -2.693750 1.735720 -0.148750
C -3.313620 -0.143270 1.229830
C -3.327100 0.468490 -0.051570
C -2.413500 0.306330 2.231870
C -1.913110 1.633380 2.161510
C -2.259210 2.409030 1.023530
