52 

C -3.022160 0.511610 -2.338330
C -2.856290 1.736320 -1.638970
C -3.063350 -1.471050 -1.199400
C -3.845110 -0.340180 -1.554970
C -0.270580 3.148840 0.682340
C -1.455620 2.806800 -0.021410
C -1.586570 2.297870 -1.340620
C -1.821810 -0.215040 -2.556600
C -0.562760 0.441720 -2.565210
C -0.453810 1.732870 -1.984180
C 1.874100 1.507710 -1.973630
C 0.766270 2.225400 -1.450020
C 0.812670 2.900610 -0.201670
C -0.809860 -2.901830 -0.206990
C -0.761620 -2.227810 -1.455980
C -1.871860 -1.507770 -1.971090
C 0.457720 -1.728860 -1.985830
C 0.554330 -0.435000 -2.562970
C 1.816780 0.215100 -2.558750
C -0.045870 2.836420 2.049220
C 1.812720 2.637920 0.771650
C 1.320740 2.452900 2.090810
C -0.697670 1.701690 2.600610
C -1.821260 1.231330 1.870650
C -2.294410 1.953360 0.743140
C -3.195240 1.540560 -0.273970
C -3.564930 0.169600 -0.259570
C 0.149740 0.695140 3.134680
C -0.144230 -0.694120 3.139170
C -1.383350 -1.118540 2.590610
C -2.148190 -0.150440 1.887570
C -2.962390 -0.560570 0.798860
C 2.957250 0.559370 0.805480
C 2.144220 0.141740 1.892260
C 1.387030 1.123260 2.584890
C 3.848580 0.334130 -1.555700
C 3.064400 1.463440 -1.200540
C 2.779180 1.805260 0.147870
C -1.324550 -2.446220 2.090360
C -1.807460 -2.640510 0.769190
C -2.778700 -1.810140 0.149840
C 0.039100 -2.840130 2.049230
C 3.563200 -0.162810 -0.256460
C 3.205280 -1.536730 -0.282350
C 2.301470 -1.944310 0.734240
C 1.816940 -1.239840 1.868000
C 0.693070 -1.706330 2.599900
C 2.854450 -1.735860 -1.643850
C 3.018410 -0.509350 -2.340420
C 0.269440 -3.148260 0.682310
C 1.456350 -2.803440 -0.016810
C 1.586210 -2.295870 -1.336630
