52 

C -2.709080 1.833500 0.159560
C -2.168700 1.826150 1.472760
C -3.281880 0.600150 -0.249390
C -2.180780 0.733840 2.380090
C -1.008420 0.142700 2.921030
C -1.050850 2.663970 1.217880
C 0.079290 2.149310 1.906710
C 0.138580 0.926150 2.625680
C 1.266600 0.076660 2.475730
C 3.485750 0.130290 1.349360
C 2.411150 0.778760 2.013570
C 2.183320 -1.858170 1.255350
C 1.204890 -1.296050 2.117450
C 3.410160 -1.223210 0.926550
C -2.128430 2.576070 -0.902460
C -1.125550 3.183660 -0.101520
C 1.090800 2.943660 -0.280350
C -0.090160 3.041290 -1.062860
C 2.382170 2.048230 1.377920
C 1.134290 2.671840 1.112730
C -1.730140 1.948700 -2.112520
C -2.181240 0.654020 -2.482390
C -3.143910 0.127190 -1.581200
C -0.327270 2.164650 -2.154540
C -3.065000 -1.273900 -1.364040
C -3.272280 -1.569180 0.009390
C -1.917770 -1.641630 -2.115770
C -2.431120 -2.266040 0.916750
C -1.417200 -2.813950 0.087120
C -1.226620 -2.575970 -1.299780
C -1.407550 -0.497700 -2.784760
C -0.002130 -0.295470 -2.764840
C 0.444900 1.029430 -2.517250
C -3.467250 -0.380270 0.760990
C -2.996230 -0.394570 2.100520
C -2.351040 -1.655890 2.196490
C -1.079840 -1.256100 2.687040
C -0.221640 -2.757600 0.851260
C -0.046710 -1.958530 2.012000
C 0.632660 -2.925810 -0.270500
C 2.743090 -2.076290 -1.031070
C 1.971750 -2.578710 0.050150
C 2.037700 2.122120 -0.947370
C 1.739250 1.159630 -1.947880
C 2.542760 -0.010100 -1.897560
C 2.063590 -1.339530 -2.037010
C 0.684340 -1.467190 -2.349760
C 0.169970 -2.522580 -1.551040
C 3.772240 0.755070 0.106790
C 2.982540 1.935180 0.096050
C 3.610840 -0.153130 -0.972810
C 3.846160 -1.434630 -0.408220
