52 

C -3.351250 0.727460 1.780180
C -3.315750 -0.648370 1.430420
C -2.792010 2.098720 0.179830
C -3.894670 1.311710 0.605530
C -0.872110 -3.082330 0.174980
C -1.984930 -2.258890 0.491440
C -2.153430 -1.437460 1.637450
C -2.035150 1.122060 2.138890
C -0.931700 0.359180 2.604710
C -1.004910 -1.039710 2.371760
C 1.344830 -1.257890 2.523160
C 0.121530 -1.875810 2.151390
C 0.138850 -2.884910 1.152470
C -0.239900 2.952610 -0.516270
C -0.476200 2.551380 0.825280
C -1.788260 2.143050 1.183340
C 0.540440 2.067140 1.690410
C 0.351660 0.965840 2.566760
C 1.461300 0.122060 2.837250
C -0.451250 -3.361210 -1.152250
C 0.897640 -3.802660 -1.106810
C 1.099290 -3.391220 0.237250
C -0.707720 -2.329940 -2.094160
C -1.732570 -1.388980 -1.809850
C -2.510660 -1.575150 -0.636650
C -3.457040 -0.745340 0.020780
C -3.574660 0.549870 -0.549300
C 0.524840 -1.817090 -2.578140
C 0.713330 -0.415230 -2.703880
C -0.412810 0.449170 -2.738190
C -1.649420 -0.037510 -2.237780
C -2.617750 0.763430 -1.576520
C 1.059440 2.465740 -2.358820
C -0.199680 1.842380 -2.564950
C 1.374350 -2.686800 -1.844410
C 1.870130 0.125530 -2.082690
C 2.067980 1.529710 -2.007860
C -1.017130 2.523280 -1.624440
C -2.273600 2.070750 -1.141870
C 2.019810 2.992130 -0.145640
C 1.017950 3.182650 -1.133780
C 3.251230 1.404760 0.219250
C 2.797390 2.101340 -0.931940
C 2.198200 -1.981140 -0.928010
C 3.080070 -0.000320 0.105670
C 2.518940 -0.603300 -1.051030
C 3.073140 -0.432770 1.458210
C 2.334660 -1.639590 1.579250
C 2.128560 -2.429680 0.417490
C 1.795750 2.447810 1.146620
C 2.919780 1.690460 1.570150
C 2.743440 0.563070 2.415300
