52 

C 1.239930 -1.710560 -2.226710
C 2.375280 -0.888490 -2.454200
C -1.035570 -2.198300 -2.075120
C -0.069010 -1.289650 -2.581790
C -1.575970 0.586950 -2.302260
C -0.293040 0.109200 -2.679660
C 0.776610 1.024910 -2.495690
C 2.095250 0.500510 -2.547810
C -1.778630 1.864930 -1.717260
C -2.395630 -1.798030 -1.994600
C -2.548000 -0.386890 -1.951160
C 3.164420 -1.135750 -1.299830
C 3.642200 0.088000 -0.760730
C 3.138830 1.000840 -1.724980
C -0.707730 2.728290 -1.364780
C 0.558910 2.206350 -1.738510
C 2.477490 -1.782810 1.125180
C 2.801210 -0.515650 1.678370
C 2.520700 -1.898190 -0.289490
C 3.325740 0.262410 0.612550
C 2.891210 1.614280 0.603940
C 1.484220 2.601750 -0.736560
C 2.757450 1.973590 -0.763330
C -1.028270 3.431500 -0.173490
C 1.518580 -2.280860 2.046530
C 1.830100 -0.172570 2.655980
C 1.131420 -1.346570 3.043360
C 0.437830 -2.799710 1.285430
C 0.371000 -2.878270 -0.130870
C 1.391640 -2.395910 -0.992290
C -0.837350 -2.930840 -0.874890
C -0.647190 -2.383350 2.101410
C -1.803790 -2.442620 1.279670
C -1.981900 -2.949930 -0.034610
C 1.808000 1.922600 1.468850
C 1.194540 1.077170 2.430830
C -0.924050 -0.027830 2.669650
C -0.279800 -1.271330 2.904460
C -3.000940 -2.453650 -0.889990
C -3.199490 -1.351340 -0.017090
C -0.779200 2.357000 1.977590
C -0.213410 1.197630 2.571060
C -2.095900 2.440200 1.452420
C -2.613570 1.126290 1.303640
C -2.118810 -0.062200 1.902930
C -2.560110 -1.241250 1.246050
C -0.213730 3.170030 0.959920
C 1.121280 2.828150 0.617490
C -2.349730 3.248930 0.313150
C -3.240630 -0.129000 -0.738640
C -3.114350 1.091960 -0.024700
C -2.648040 2.268100 -0.669400
