52 

C -3.778200 0.423920 -0.726490
C -3.577990 -0.857880 -1.303880
C -2.712660 -1.441850 -2.266500
C -2.811090 1.404090 -1.073540
C -0.665410 1.707980 -1.588200
C -1.796710 0.927570 -1.945610
C -1.810670 -0.373460 -2.514440
C 1.543230 1.925550 -1.933990
C 0.426290 1.119880 -2.280250
C -0.609760 2.394200 -0.346220
C 2.904010 2.201860 -0.121040
C 1.622830 2.517650 -0.645750
C -2.099180 -2.466770 -1.498630
C -0.132530 -2.588160 0.697560
C 0.713010 -2.329840 1.808860
C -0.718160 -2.330410 -1.799790
C 0.137460 -2.589950 -0.696600
C 2.092390 -2.466590 1.500540
C 2.635230 -0.101460 -1.992860
C 1.535410 -0.999690 -1.980350
C 1.407150 -2.051620 -1.035090
C 2.230730 -2.267730 0.101320
C 0.459910 -0.272740 -2.555910
C -0.639250 -1.169870 -2.614280
C 2.802540 1.301340 -2.136300
C -3.368760 -1.428750 -0.020620
C -3.552620 -0.401870 0.942800
C -2.230590 -2.274360 -0.097840
C -2.638030 -0.116040 1.990800
C -1.529310 -1.003320 1.984020
C -1.403460 -2.051940 1.034800
C -4.096710 0.860480 0.586660
C -3.678630 2.026720 1.280550
C -2.823880 1.284090 2.137480
C 0.635820 -1.166820 2.619980
C -0.458790 -0.264630 2.553930
C -1.623260 2.509230 0.641750
C -2.898910 2.191050 0.105200
C 0.624460 2.390610 0.356050
C -0.436060 1.126490 2.269730
C -1.568040 1.913460 1.929560
C 1.812090 -0.378200 2.515440
C 1.811370 0.919400 1.938600
C 0.674830 1.698160 1.594790
C 2.808330 1.415460 1.057470
C 2.714170 -1.446650 2.268340
C 3.578360 -0.861000 1.305740
C 3.780600 0.428400 0.746330
C 3.551690 -0.412030 -0.953600
C 3.374240 -1.429700 0.020700
C 3.692610 2.009460 -1.286160
C 4.089910 0.846310 -0.575070
