52 

C 1.679370 -2.683730 -0.831080
C 2.236100 -2.395890 0.443200
C 3.261860 -1.415550 0.499840
C 0.271000 -2.844130 -0.745760
C -0.295190 -2.673800 0.545380
C -1.707830 -2.535110 0.503830
C 3.488030 -0.825220 1.771370
C 0.249370 -2.077570 1.713500
C 1.669380 -2.076350 1.705430
C 2.304280 -1.092490 2.508770
C 3.305730 0.520190 1.355330
C 3.179700 0.656880 -0.052480
C 2.586920 1.738890 -0.755590
C 2.372620 1.256210 2.132530
C 1.826140 2.367630 1.437810
C 2.083350 2.757000 0.096670
C 0.418630 2.524680 1.541480
C 0.293140 0.236320 2.671760
C 1.708710 0.171160 2.763670
C -2.356290 0.244950 2.118460
C -1.617830 1.424560 1.836040
C -0.248970 1.465480 2.211540
C -2.022390 2.232760 0.740770
C -1.749790 -1.016740 2.356730
C -3.745550 -1.488150 1.147000
C -2.462720 -1.943650 1.551100
C -0.333640 -1.020350 2.461100
C 2.549100 -0.860220 -1.938600
C 1.882750 0.211420 -2.589810
C 3.142490 -0.620850 -0.670920
C 1.926880 1.497570 -1.989510
C 1.933780 -2.128060 -2.112850
C 0.786170 -1.770370 -2.868820
C -0.174040 -2.358980 -2.003940
C 1.015190 3.214370 -0.719590
C 0.849140 2.415940 -1.882100
C -0.349220 1.779350 -2.300620
C -0.431210 0.443220 -2.774520
C 0.688380 -0.371160 -3.090350
C -1.515100 -0.364490 -2.339460
C -1.422270 -1.697590 -1.859150
C -2.212600 -2.092190 -0.747360
C -1.337940 2.407550 -1.497960
C -2.566260 1.705200 -1.378110
C -2.599410 0.333910 -1.745370
C -1.211110 2.938180 -0.186940
C 0.076620 3.210460 0.346000
C -3.565690 -0.116670 1.468060
C -3.827400 0.618810 0.281900
C -3.103440 1.789710 -0.066360
C -3.544280 -0.210220 -0.835660
C -3.384670 -1.482890 -0.226380
