52 

C -2.617730 -1.640630 1.214030
C -3.243530 -0.415870 1.567370
C -0.954230 -2.707250 -0.670500
C -2.182250 -2.157710 -1.124960
C -3.118870 -1.902410 -0.088600
C 0.147520 -2.477960 -1.536570
C -4.142410 -0.170080 0.495890
C -4.090860 -1.024480 -0.637150
C -3.425820 0.974860 0.057600
C -2.622410 1.591350 1.053090
C -1.657500 2.557560 0.663310
C -3.232350 -0.413420 -1.589010
C -2.865610 0.914830 -1.245880
C -1.037090 0.421330 2.537790
C -0.202730 1.554490 2.346770
C -2.349220 0.589340 2.021510
C -0.520770 2.655840 1.508690
C 0.179400 3.500660 0.607310
C 1.551680 3.135830 0.592690
C 1.871740 2.068670 1.473180
C 1.184290 1.257720 2.414600
C 1.586880 -0.054640 2.778060
C -1.678030 1.592140 -1.629850
C -1.351290 2.633410 -0.721260
C -0.123050 3.344280 -0.771280
C 0.753730 -1.204480 2.763440
C -0.622580 -0.936870 2.538380
C -1.296060 -1.853140 1.687890
C 1.321170 -2.248720 1.986240
C 0.750010 -2.831530 0.824090
C -0.656650 -2.669140 0.717470
C 2.681650 -1.956960 1.702700
C 1.099480 -2.853410 -0.552060
C 2.378680 -2.344550 -0.900120
C 3.030860 -2.069470 0.330900
C 2.740790 -0.617960 2.171750
C 3.439480 -0.780710 -0.103330
C 3.198720 -0.481400 -1.470410
C 2.614860 1.734920 -0.762650
C 2.759260 1.379880 0.604670
C 3.139960 0.068600 0.994570
C 2.640620 0.778810 -1.812240
C 1.813580 2.907050 -0.784080
C -2.121780 -1.132150 -2.105280
C -0.924990 -0.522750 -2.566640
C -0.746340 0.879380 -2.430120
C 1.552810 0.560270 -2.698450
C 0.525870 1.509800 -2.452950
C 0.740020 2.686130 -1.686930
C 2.476230 -1.546410 -2.070550
C 1.438930 -0.854240 -2.749770
C 0.165930 -1.428820 -2.493380
