52 

C -2.034560 -2.696600 -1.070260
C -0.734970 -2.858910 -1.619090
C 2.793110 -1.061680 -1.240870
C 1.569810 -1.742620 -1.478380
C -1.974500 -2.574800 0.343270
C -2.646450 -1.622830 1.154890
C -3.527480 -0.763620 0.446360
C -0.671250 -2.713260 0.889940
C -0.287840 -1.889610 1.981370
C 1.120860 -1.809550 2.141630
C 3.019460 -1.679480 1.207100
C 1.764380 -2.302090 0.975530
C 1.243890 -2.510470 -0.329120
C -0.083190 -3.014260 -0.367050
C 3.490400 -1.108440 -0.004730
C -3.945650 0.371030 1.190760
C -2.934350 0.531010 2.174680
C -2.384950 1.779870 1.781010
C -0.865020 -0.681760 2.455180
C -2.257050 -0.717080 2.176870
C 1.664940 -0.566250 2.559530
C 1.039640 0.695830 2.378720
C -0.377550 0.651990 2.457070
C -0.967680 1.801010 1.867200
C -0.490550 2.643680 0.828580
C -3.874190 1.359350 0.173640
C -2.884830 2.302320 0.558870
C -0.900660 2.835760 -0.517300
C -2.229600 2.369600 -0.699140
C -3.371970 0.708500 -0.984210
C -3.247190 -0.705470 -0.944510
C -2.458330 -1.541130 -1.778650
C -1.525860 -0.836120 -2.584830
C -1.423720 0.574820 -2.460900
C -2.324080 1.356780 -1.689970
C 0.757020 -1.080990 -2.436560
C -0.473130 -1.786330 -2.512110
C 3.127300 0.214860 -1.765460
C 0.861580 0.321590 -2.632400
C -0.066550 2.397600 -1.579710
C -0.181720 1.262290 -2.424840
C 2.064270 0.995400 -2.291920
C 4.019090 0.844600 -0.857410
C 1.085470 2.703040 -0.807710
C 3.147810 1.850280 -0.361530
C 2.220070 2.095900 -1.408130
C 3.039210 -0.687920 2.223380
C 3.549600 0.404990 1.474050
C 2.855330 1.547130 0.994570
C 1.547020 1.708670 1.522450
C 0.908450 2.574140 0.595320
C 4.256180 0.049250 0.294820
