52 

C 1.798030 -1.434360 2.242740
C 2.440050 -0.177390 2.399050
C 3.502210 0.174520 1.524740
C 0.406180 -1.478080 2.520900
C 1.798330 1.088890 2.434110
C 0.378720 1.069820 2.403050
C -0.196200 -0.200820 2.670500
C -2.231870 0.967080 2.061620
C -1.591230 -0.251420 2.410040
C -2.062640 -1.490440 1.901050
C 3.707980 1.518480 1.115040
C 2.445800 1.997360 1.555510
C -1.596660 2.128370 1.547450
C -0.177700 2.080090 1.574620
C 2.352750 2.144930 -0.855940
C 3.466030 1.474540 -0.283520
C 1.732720 1.720220 -2.060820
C 0.380230 2.591800 0.373210
C 1.797500 2.507550 0.399700
C 0.340620 1.996270 -2.109040
C -0.189440 2.578920 -0.927490
C 1.865550 0.449220 -2.680000
C 2.683520 -0.390960 -1.879050
C 3.489150 0.175200 -0.855890
C 0.668530 -0.179800 -3.113490
C 2.314600 -1.666240 -1.375050
C 1.146370 -2.323580 -1.843700
C 0.407120 -1.530190 -2.760490
C -2.173570 1.599440 -1.716690
C -1.504970 0.578500 -2.442750
C -0.193890 0.921110 -2.867180
C -3.589420 2.124160 0.324420
C -2.264970 2.630720 0.399650
C -1.607750 2.578720 -0.858030
C 2.680950 -1.712890 -0.003890
C 3.494790 -0.599440 0.334200
C 1.941920 -2.244920 1.085700
C 0.801400 -2.953740 0.623920
C 0.528440 -3.015020 -0.768280
C -0.000980 -2.590460 1.737760
C -1.362870 -2.589130 1.335670
C -0.813550 -2.845310 -1.200360
C -2.766350 -1.998900 -0.211300
C -1.629090 -2.831380 -0.037970
C -3.306850 1.425290 -0.878970
C -3.556990 0.045260 -0.656740
C -2.776660 -0.999100 -1.219620
C -1.761450 -0.795360 -2.191350
C -0.868560 -1.897590 -2.256410
C -3.746750 -0.119360 0.740870
C -3.438240 1.134580 1.331540
C -3.160810 -1.385160 1.006960
