52 

C 3.014850 -1.781320 -0.674630
C 4.118620 -1.072600 -0.130680
C -0.855440 -2.612350 -0.779860
C 0.528700 -2.299200 -0.831990
C 4.302400 -1.017170 1.276290
C 4.141490 0.393400 1.305160
C 1.035060 -2.207210 0.491570
C 2.449520 -2.120830 0.583010
C 3.038600 -1.494920 1.713340
C 2.669930 1.861720 -0.132810
C 1.987660 2.094770 -1.356230
C 2.990420 0.804170 2.028160
C 0.897480 1.950110 1.387000
C 2.295270 1.753020 1.232580
C -1.041450 2.759160 0.558330
C 0.345010 2.639900 0.275430
C 0.679600 2.586340 -1.103570
C -1.412100 -2.483320 0.520160
C -0.924050 -1.673060 1.579340
C 0.491140 -1.572180 1.639370
C 1.012080 -0.413100 2.273140
C 2.423310 -0.434270 2.429510
C -1.481150 -0.484570 2.121240
C -0.986700 0.841140 2.241790
C 0.432060 0.880830 2.197260
C -1.518170 2.032830 1.681580
C 3.671770 -0.046790 -1.005030
C 2.743370 0.014300 -2.077790
C 3.695700 0.897890 0.054870
C 1.965050 1.152230 -2.418110
C 0.637140 0.842360 -2.814480
C 2.309890 -1.312050 -1.814500
C 0.914380 -1.529770 -1.961480
C 0.226630 -0.509400 -2.670210
C -1.156260 -0.729210 -2.434010
C -2.777290 -2.293400 -1.169200
C -1.561550 -1.939780 -1.812100
C -2.969730 0.207950 -1.433280
C -1.780800 0.513430 -2.147140
C -3.469780 -1.060730 -1.037290
C -1.308780 1.814080 -1.827820
C 0.043540 1.989280 -2.224010
C -3.479260 1.059140 -0.417260
C -2.904860 2.262640 0.070650
C -1.719080 2.521000 -0.666640
C -4.183450 -1.028220 0.189910
C -4.162800 0.333030 0.593650
C -3.430030 0.724880 1.745120
C -2.922280 2.022160 1.470030
C -2.794500 -2.599970 0.217220
C -3.336050 -1.662740 1.136330
C -2.885140 -0.573600 1.928060
