52 

C -0.237120 -2.515730 1.855400
C 0.812700 -1.580740 2.056240
C 3.069970 0.262520 2.063570
C -1.505500 -1.927220 2.103160
C -1.606880 -0.539600 2.387450
C -0.550080 0.389300 2.579530
C 0.687570 -0.302130 2.661320
C 1.797500 0.581920 2.607010
C -1.795240 2.310730 1.414540
C -0.661720 1.674810 1.986610
C -2.662470 0.179660 1.767070
C -2.979360 1.527950 1.453820
C 3.945870 1.195700 1.448440
C 3.533450 1.107770 -1.057140
C 3.111400 0.320830 -2.161250
C 0.446750 2.168660 1.249100
C 1.670910 1.779510 1.854520
C 2.784650 1.863830 0.977640
C 1.261260 1.952280 -1.069500
C 2.520060 1.869610 -0.417500
C 0.302860 2.433350 -0.138610
C 4.261740 0.798910 0.122090
C 3.588410 -0.441980 -0.030350
C 1.507500 -2.230790 -0.270580
C 0.349080 -3.028390 -0.466710
C 3.201390 -0.833610 -1.339290
C 2.046840 -1.652830 -1.450250
C 1.772190 -1.688820 1.014980
C 2.872230 -0.799970 1.142420
C -0.344600 -3.368200 0.724820
C -1.637500 -3.692470 0.235270
C -0.329510 -2.662850 -1.659350
C -1.541720 -3.023490 -1.013630
C -3.416290 0.691920 -0.270930
C -3.141470 -0.417880 0.571270
C -2.728120 -1.724330 0.198720
C -2.150090 -2.674210 1.081910
C -2.666340 1.985350 -1.680660
C -2.816940 0.579090 -1.553310
C 1.320160 -1.158750 -2.565710
C -1.274080 2.023100 -1.957580
C -0.470370 0.986190 -2.501100
C -0.872430 -0.374760 -2.552980
C -0.047470 -1.527100 -2.463740
C -2.102440 -0.603460 -1.881250
C -2.258240 -1.803910 -1.138930
C -2.030360 2.912260 0.149890
C -0.952470 2.695000 -0.748640
C 0.904640 1.212290 -2.227830
C 1.784940 0.180490 -2.648360
C -3.617590 1.988530 0.271900
C -3.157660 2.901670 -0.713520
