52 

C -3.859360 -0.329180 0.277200
C -3.305490 0.914220 0.681750
C -0.082190 3.322660 0.704370
C -1.315910 2.686390 1.003710
C -3.152340 -1.223850 1.123450
C -2.584800 -2.142980 0.201690
C -1.461990 -2.839330 0.722210
C -2.386000 -0.577460 2.129130
C -0.207740 -0.172960 3.029810
C -1.149590 -1.126620 2.560730
C -0.818300 -2.328080 1.880160
C -1.441320 1.727760 2.043830
C -2.507670 0.809900 1.851840
C -0.358350 1.221930 2.810470
C -0.624850 -3.275010 -0.338840
C 0.624250 -3.275290 0.336620
C 2.586360 -2.139160 -0.205830
C 1.463090 -2.837710 -0.722350
C 1.151480 -0.514000 2.800240
C 1.489130 -1.664660 2.039640
C 0.541100 -2.624190 1.595820
C 2.575960 -1.646400 1.125920
C -0.542900 -2.621490 -1.596900
C -1.491340 -1.662340 -2.040790
C -2.578240 -1.642360 -1.127150
C -1.150540 -0.512540 -2.801270
C 0.817490 -2.329250 -1.880430
C 2.388100 -0.583580 -2.123030
C 1.150440 -1.126810 -2.558500
C 0.209410 -0.173010 -3.028770
C 3.166150 -1.220450 -1.120300
C -1.797100 0.731060 -2.573530
C -2.835080 0.734840 -1.604460
C -3.360750 -0.460200 -1.045940
C -0.885600 1.816210 -2.483580
C -2.865130 1.601660 -0.480120
C -1.870070 2.598710 -0.300770
C -1.007900 2.748150 -1.419140
C 2.501700 0.807420 -1.860980
C 1.439470 1.732860 -2.039050
C 0.362000 1.221730 -2.809930
C 3.298440 0.913640 -0.690360
C 1.315590 2.689880 -0.997310
C 0.077910 3.322350 -0.706580
C 3.861980 -0.320320 -0.270600
C 1.796730 0.730360 2.572910
C 2.834820 0.735420 1.603980
C 3.356750 -0.462820 1.048820
C 1.872930 2.597630 0.305500
C 1.004280 2.751350 1.418270
C 0.888040 1.817750 2.481890
C 2.867010 1.598160 0.476570
