52 

C -0.167230 -2.850670 -1.112760
C -1.413110 -2.229590 -0.832240
C -3.629400 -0.555750 -0.321800
C -1.963990 -1.456640 -1.888480
C -3.172110 -0.748760 -1.652270
C -1.218910 -0.632270 -2.772650
C 0.174340 -0.904420 -2.736210
C 0.522920 -2.140680 -2.130680
C -4.343170 0.591700 0.114410
C -3.079050 0.601640 -2.081430
C -3.512950 1.195510 -0.866720
C -3.994670 0.780460 1.477990
C -3.080280 -0.249840 1.822710
C -0.825480 -2.017430 1.617930
C 0.259950 -2.891520 1.345120
C -1.882870 -0.003120 2.545100
C -0.784900 -0.902320 2.496270
C 1.442740 -2.504580 2.029070
C 1.468730 -1.176200 2.530310
C -2.594500 1.896090 -0.040820
C -2.879580 1.646760 1.327790
C -0.509930 1.871080 1.784920
C -1.777170 1.364330 2.177130
C 0.438810 -0.216620 2.717300
C -1.729470 -1.954960 0.524600
C -2.867570 -1.130870 0.729550
C 0.480180 -3.385740 0.032230
C 2.291410 -2.695350 0.906660
C 1.830780 -3.170380 -0.349770
C 2.489890 -1.107770 -1.597480
C 1.778080 -2.332210 -1.494810
C 3.317200 1.589860 0.577820
C 3.432730 0.680620 -0.506800
C 3.091420 -0.691940 -0.380230
C 2.838850 -1.387240 0.831870
C 3.075390 2.884700 0.047400
C 2.748060 0.885920 1.671890
C 2.548870 -0.500960 1.902780
C -1.716280 0.664230 -2.475640
C -0.919320 1.638670 -1.818480
C -1.289130 2.141680 -0.543040
C 0.887630 2.857960 -0.014280
C -0.373940 2.453560 0.496960
C 1.957150 2.786820 0.917130
C 1.724610 1.832360 1.942500
C 0.557920 1.161200 2.395040
C 2.957590 1.230480 -1.726760
C 2.217900 0.130770 -2.236620
C 0.870640 0.329360 -2.638970
C 2.637500 2.531540 -1.256430
C 1.220780 2.495430 -1.346210
C 0.462930 1.595120 -2.140890
