52 

C 1.940590 2.902510 -0.218520
C 0.663630 3.342620 0.219840
C 1.850950 2.266530 -1.485000
C 2.635490 1.128140 -1.809170
C 3.548670 0.629480 -0.842790
C 0.492280 2.241260 -1.897150
C -0.058680 1.128790 -2.586650
C -1.475680 1.048100 -2.632910
C -1.762250 2.430920 0.816340
C -1.491160 2.524900 -0.574420
C -0.169140 2.955360 -0.863220
C -2.125000 1.773560 -1.599200
C 3.814780 -0.755230 -1.010680
C 2.742980 -1.142060 -1.858080
C -1.418410 -1.329060 -2.515720
C -0.003870 -1.336220 -2.390750
C 0.646610 -0.101840 -2.654750
C 2.037980 -0.025990 -2.381390
C -2.157710 -0.172670 -2.879880
C 2.415540 -2.372720 0.083990
C 3.295370 -1.265090 0.208630
C 1.553240 -2.690450 1.166590
C 0.337440 -3.321400 0.792170
C 0.600880 -2.298950 -1.539920
C 1.987540 -2.183240 -1.256660
C -0.088940 -3.017380 -0.527780
C 1.272710 -1.752860 2.195520
C 1.812320 -0.441730 2.116080
C 2.838590 -0.300080 1.144900
C 3.098890 0.922860 0.471780
C 2.337780 2.059470 0.852930
C -0.055500 -1.917500 2.670080
C -0.754980 -0.754890 3.089100
C -0.159130 0.532570 3.151300
C 1.109200 0.716930 2.539890
C 1.386740 1.955000 1.902250
C -0.585380 -2.890240 1.781580
C -1.107700 1.568930 2.944840
C -0.911190 2.558780 1.945840
C 0.404340 2.917860 1.549800
C -2.216630 0.843740 2.434170
C -1.670530 -2.497980 0.953920
C -3.072790 -0.782300 0.165380
C -2.386820 -1.318060 1.287380
C -1.992100 -0.558340 2.420260
C -3.166250 -1.143370 -1.204780
C -2.106870 -2.042090 -1.498840
C -1.477800 -2.737380 -0.432430
C -3.414060 -0.179970 -2.218110
C -2.629610 1.367160 1.180410
C -3.177270 0.632160 0.095860
C -3.189060 0.881440 -1.302040
