52 

C -1.243790 2.758450 -0.530960
C -2.090320 2.014260 -1.394790
C -3.231260 1.662700 -0.625910
C 0.076160 2.705670 -1.052020
C 0.422450 1.844790 -2.127010
C 1.827940 1.642770 -2.108670
C 3.760560 1.487750 -0.760180
C 2.609270 2.250530 -1.090520
C -2.511650 -0.097450 -2.158030
C -3.414840 0.360940 -1.162720
C -2.086180 -1.452150 -2.141270
C -0.328580 0.756910 -2.645700
C -1.687520 1.043040 -2.349250
C -0.752430 -1.744940 -2.531020
C 0.067790 -0.603790 -2.734730
C -2.351060 -2.152640 -0.934770
C -2.910000 -1.510510 0.201790
C -3.634140 -0.295370 0.077280
C -1.318320 -3.061750 -0.583510
C 2.204580 0.281680 -2.257140
C 1.387240 -0.879130 -2.287820
C -0.483000 -2.876750 -1.716860
C -3.818910 0.474460 1.256110
C -2.432770 -1.359910 1.530720
C -2.859460 -0.134510 2.107630
C -2.239470 1.968340 1.672420
C -3.324120 1.721150 0.789870
C -1.300420 2.687000 0.886150
C -0.603750 0.355460 2.677480
C -1.919950 0.856800 2.496360
C 0.006000 2.444870 1.387310
C 0.295370 1.381290 2.282620
C -0.361240 -1.036840 2.538820
C -0.836600 -2.852690 0.735860
C -1.152320 -1.927190 1.765510
C 0.981710 -1.495020 2.483850
C 1.911370 -0.421720 2.500300
C 1.643430 0.941500 2.206490
C 2.426840 1.675250 1.276780
C 2.068530 2.521520 0.194250
C 0.691430 2.867140 0.217570
C 3.021780 -1.015590 1.844000
C 0.543540 -3.067390 0.479790
C 2.565960 -2.092870 1.038930
C 1.303260 -2.506180 1.540130
C 3.347100 0.296970 -1.414040
C 3.508530 -0.711290 -0.427230
C 2.607440 -1.806140 -0.351220
C 1.637630 -1.941620 -1.379580
C 0.693610 -2.898700 -0.922160
C 3.712100 -0.221870 0.890120
C 3.570480 1.162810 0.609020
