52 

C -2.139050 0.250230 -2.420450
C -2.592290 1.518210 -1.969500
C -0.535750 -1.499810 -2.634180
C -0.817200 -0.116400 -2.787650
C 1.406150 0.567060 -2.367840
C 0.055930 0.974370 -2.533900
C -0.281300 2.143860 -1.802400
C -1.615210 2.349870 -1.361110
C 2.224090 1.526640 -1.714580
C 0.798730 -1.925760 -2.401410
C 1.682070 -0.822190 -2.266160
C 3.360620 1.298520 -0.894400
C 2.705500 -1.085790 -1.317710
C 3.532870 -0.099900 -0.717800
C -3.610190 1.573970 -0.980960
C -1.861200 2.476700 0.031690
C -3.150510 1.950090 0.308870
C 1.932930 2.663590 -0.915200
C 0.520980 2.779000 -0.817800
C -3.574210 0.204390 -0.607600
C -3.709470 -0.007660 0.789960
C -3.291490 1.160510 1.480680
C 0.281410 2.755230 0.581670
C -0.954050 2.294610 1.108910
C -3.076650 -1.112470 1.418750
C -1.390680 -2.464100 1.361590
C -0.438490 -3.108420 0.528100
C -1.016940 1.337020 2.155610
C -2.270570 0.700110 2.353730
C -2.372700 -0.697990 2.580260
C -0.001110 -0.894290 2.601850
C -1.248310 -1.554280 2.442530
C 0.069500 0.523710 2.573550
C -2.379340 -1.932020 0.492170
C -2.216920 -1.771020 -0.909320
C -2.774840 -0.591690 -1.469970
C -1.185420 -2.346560 -1.697480
C -0.429320 -3.233580 -0.886370
C 0.836890 -3.014560 -1.490640
C 1.483260 -2.908540 -0.230710
C 3.057170 -1.359500 0.911390
C 2.591740 -2.021370 -0.255550
C 1.391670 2.320400 1.352830
C 1.262540 1.215910 2.235940
C 2.393610 0.358810 2.185970
C 2.215020 -1.038750 2.008810
C 0.982440 -1.743560 2.029280
C 0.839090 -2.734980 1.022830
C 3.515800 1.843180 0.407780
C 2.393970 2.713540 0.426960
C 3.484420 0.846350 1.418600
C 3.914830 -0.260680 0.640380
