52 

C 3.722740 -0.135490 -0.235720
C 3.398000 -0.184850 -1.617240
C 2.883840 -1.495450 -1.802790
C -0.357700 -2.931160 0.457400
C 0.673510 -2.668900 -0.483040
C 2.561140 1.986690 0.149640
C 2.197350 1.930000 -1.221860
C 3.152920 0.803080 0.664760
C 2.445550 0.785980 -2.025680
C 1.395960 0.091270 -2.683120
C 0.972350 2.647720 -1.248570
C 0.014790 2.001820 -2.074680
C 0.123390 0.721450 -2.679150
C -1.755580 -2.254340 -1.391650
C -0.760660 -1.565910 -2.135140
C -0.911100 -0.250910 -2.649570
C -2.182750 0.358250 -2.481440
C 0.524130 -2.022590 -1.738640
C 1.579490 -1.268180 -2.316120
C -1.644080 -2.923090 -0.143950
C 1.710590 2.724090 1.015230
C 0.848150 3.264010 0.024710
C -1.338930 2.919580 -0.204100
C -0.351630 3.188380 0.780520
C -2.309490 1.682510 -1.984720
C -1.215670 2.475290 -1.547180
C 2.598530 0.221020 1.835360
C 2.941600 -1.116920 1.505620
C -0.194740 2.533380 2.030650
C 1.139970 2.059480 2.132890
C 1.435640 0.715480 2.483180
C -1.102940 1.560490 2.525760
C -0.803170 0.239950 2.953300
C 0.498720 -0.304800 2.795760
C 3.779020 -1.406060 0.395880
C 1.877750 -2.521630 0.254910
C 2.989590 -2.129640 -0.536670
C 0.663040 -1.621710 2.290560
C 1.829830 -1.997710 1.573870
C -0.390990 -2.427690 1.784750
C -2.695410 0.142970 1.739260
C -1.841020 -0.644060 2.556000
C -1.707060 -1.961970 2.044540
C -3.312400 -0.379430 0.571840
C -3.012440 1.614060 -0.752810
C -2.353170 2.127000 0.395540
C -2.218570 1.477610 1.651160
C -3.527470 0.294030 -0.659670
C -3.051210 -1.688970 -1.257030
C -3.198550 -0.407090 -1.849900
C -2.437320 -2.524170 0.964230
C -3.283530 -1.732870 0.143150
