52 

C 3.013730 -1.267990 1.112410
C 3.056320 -0.286430 0.087090
C 2.261980 -2.424530 0.775130
C 1.848850 -2.577830 -0.574820
C 2.106900 -1.665300 -1.631800
C 2.650730 -0.404800 -1.268660
C 2.327400 0.750440 -2.028510
C 0.526070 -3.001100 -0.870740
C -1.643950 -2.527300 -0.120340
C -0.330290 -2.911170 0.258450
C 2.914950 0.976050 0.721630
C 2.455770 2.054070 -1.480310
C 2.614720 2.115700 -0.070570
C 0.613590 -0.554690 -3.175400
C 1.210540 0.704960 -2.904320
C 1.200850 -1.764960 -2.720650
C 1.691970 3.061320 0.449810
C 0.896880 3.445100 -0.662400
C -0.403730 3.144830 -0.177880
C 0.481590 1.847380 -2.480060
C 1.318700 2.813970 -1.862470
C -0.780690 -0.696110 -2.946330
C -1.490000 0.402030 -2.391780
C -0.856900 1.628830 -2.059140
C -1.318470 2.370570 -0.939660
C -2.488210 1.980680 -0.235290
C 0.954910 2.528960 1.540610
C 1.181260 1.351870 2.302030
C 2.377700 0.651190 1.995320
C 2.635180 -0.697740 2.356570
C 1.644940 -1.552460 2.909130
C -0.380520 2.888680 1.218660
C -1.423090 2.165890 1.856710
C -1.152530 0.992630 2.609540
C 0.165910 0.520380 2.844430
C 0.403790 -0.869820 3.009260
C -2.654110 1.975550 1.174990
C 0.135340 -2.659440 1.576130
C 1.500870 -2.599770 1.961070
C -2.197560 0.085660 2.290530
C -1.811610 -1.247430 1.989880
C -0.548380 -1.738630 2.413440
C -2.405320 -1.774830 0.812690
C -3.240520 0.752240 1.594610
C -3.829780 0.193460 0.429720
C -3.439910 -1.128070 0.086230
C -2.689460 0.096530 -1.695790
C -3.283160 0.891190 -0.679700
C 0.224330 -2.664400 -2.216850
C -1.012220 -2.011140 -2.463090
C -3.043430 -1.212590 -1.274680
C -1.991910 -2.151610 -1.444820
