52 

C -3.413360 0.583070 -1.427490
C -1.609390 -1.540310 -1.801450
C -0.667770 -2.562300 -1.509010
C -0.697880 2.380420 -1.731130
C -2.072640 2.105460 -1.956880
C -2.303220 0.746370 -2.297790
C -0.044560 0.142080 -2.691640
C -1.372260 -0.311550 -2.472660
C 0.244040 1.469890 -2.279120
C -3.870880 -0.451110 0.745480
C -3.498480 -0.580980 -0.618660
C -2.568820 -1.645040 -0.759820
C -2.466060 -2.159100 0.559900
C -3.010710 -1.270000 1.523920
C -1.294400 -2.862690 0.945420
C -0.662080 -3.248860 -0.265990
C -0.621620 -2.221120 2.018850
C -0.851330 -0.947050 2.602430
C -2.177500 -0.494260 2.372720
C -2.447620 0.827640 1.929900
C -1.463750 1.811780 1.647070
C -1.662220 2.513160 0.428370
C 0.694390 2.385750 1.729400
C 2.068830 2.111620 1.958080
C 1.381910 -0.320320 2.465220
C 0.057470 0.140700 2.688570
C -0.239280 1.467390 2.278410
C 2.297400 0.752720 2.301090
C 0.657750 -2.565980 1.508210
C 1.608920 -1.551200 1.794460
C 3.406680 0.587980 1.430010
C 2.573670 -1.645170 0.756720
C 3.498340 -0.575970 0.621760
C 0.654720 -3.253040 0.265470
C -3.468080 0.895900 0.944800
C -2.561790 2.447440 -0.668390
C -3.556830 1.488150 -0.342750
C 0.577010 2.895500 0.409230
C -0.581740 2.891990 -0.411560
C 3.560180 1.489710 0.343850
C 2.560810 2.444900 0.668380
C 3.480490 0.890040 -0.940860
C 3.866260 -0.462460 -0.745050
C 1.295620 -2.866180 -0.941190
C 3.001170 -1.268710 -1.531190
C 2.467730 -2.159590 -0.562590
C 1.660130 2.516290 -0.427130
C 1.467700 1.810240 -1.644050
C 2.457500 0.831260 -1.923950
C 2.175370 -0.483970 -2.378940
C 0.853190 -0.954030 -2.596420
C 0.617000 -2.226480 -2.012040
