52 

C 3.965300 0.341990 -0.708370
C 3.246840 1.566840 -0.703930
C -0.416420 2.931790 0.458230
C 0.880150 2.675710 -0.061310
C 3.176410 -0.433020 -1.599140
C 2.740710 -1.584970 -0.892230
C 1.601550 -2.315840 -1.321970
C 2.236950 0.285740 -2.384820
C 0.016110 0.584320 -2.969780
C 1.055160 -0.371680 -2.818090
C 0.862380 -1.705090 -2.369430
C 1.055390 2.237570 -1.400680
C 2.250370 1.537910 -1.715230
C 0.043180 1.844490 -2.315750
C 2.139430 -1.788260 1.565140
C 1.098170 -2.655900 1.141420
C 2.980530 -1.387710 0.493420
C 0.915370 -2.928490 -0.240170
C -0.366630 -3.020150 -0.843930
C 0.122720 -2.296030 2.108620
C -1.155540 -2.582620 1.560490
C -1.307850 -3.023800 0.219370
C -2.502530 -2.434050 -0.271930
C -1.272890 0.013150 -2.800350
C -1.435120 -1.315340 -2.325670
C -0.405930 -2.249910 -2.036250
C -2.489930 -1.593970 -1.416730
C 3.314850 0.808420 1.557020
C 2.214780 0.506500 2.402710
C 3.690470 -0.161740 0.590540
C 1.756180 -0.830330 2.540820
C 0.374240 -1.064230 2.768850
C 1.368000 1.629950 2.209570
C -0.014880 1.428820 2.462010
C -0.430580 0.105710 2.767100
C -1.757770 -0.225720 2.386040
C -2.513220 0.889030 1.935320
C -2.045040 -1.532280 1.909810
C 1.726490 2.322510 1.022860
C 3.025410 1.874350 0.664580
C -2.156680 2.224280 1.609110
C -0.752350 2.396590 1.729910
C -2.988400 -1.743270 0.869640
C -3.579150 -0.567940 0.334810
C -3.472240 0.730260 0.900200
C -1.982800 1.137900 -2.302950
C -3.019300 0.865080 -1.371440
C -3.306480 -0.489460 -1.056550
C -2.519840 2.660740 0.307560
C -1.407330 2.845880 -0.555290
C -1.229530 2.244570 -1.829340
C -3.328740 1.611670 -0.203860
