52 

C -3.098720 -0.404450 1.683580
C -2.998380 0.800760 0.939300
C -2.211600 1.935140 1.272020
C -1.296430 1.686840 2.329070
C -1.055490 0.341820 2.715700
C -1.974730 -0.717400 2.493020
C -2.652410 1.200220 -1.528660
C -1.877710 2.333390 -1.164900
C -3.197680 0.483850 -0.430490
C -1.754270 2.735070 0.191540
C -0.599080 3.332790 0.761380
C 0.506180 -1.494650 2.436890
C 0.286010 -0.123530 2.733750
C -0.394510 2.744150 2.037350
C -2.255790 0.502020 -2.699840
C -0.825210 2.210820 -2.110250
C -1.053710 1.171650 -3.050690
C -2.056210 -0.883920 -2.463590
C -2.605740 -1.583900 -1.356980
C -3.419000 -0.918510 -0.401840
C -0.690990 -1.170550 -2.729170
C -0.092330 -2.100660 -1.838610
C 1.323910 -1.997750 -1.822880
C 3.150760 -0.800760 -1.678560
C 1.901510 -0.814010 -2.353610
C 1.145670 0.350830 -2.650870
C -0.155610 0.076040 -3.148490
C 3.459950 0.431120 -1.043460
C 1.371470 1.528450 -1.890110
C 0.453680 3.072510 -0.155380
C 0.398910 2.457210 -1.433990
C 2.510450 1.487020 -1.043090
C -3.544450 -1.494430 0.890050
C -2.500590 -2.456780 0.916100
C -0.402780 -2.436750 1.886690
C -1.758870 -2.051540 2.057190
C -0.628390 -2.661500 -0.649240
C -2.016780 -2.472460 -0.418860
C 0.007350 -2.880200 0.601530
C 3.288630 -1.769050 -0.649070
C 2.021310 -2.409580 -0.656480
C 1.414530 -2.689740 0.596430
C 3.622570 -1.120450 0.569230
C 4.051140 0.188750 0.224670
C 1.431290 2.747530 0.821920
C 3.231070 1.040160 1.011460
C 2.521710 2.023090 0.271810
C 1.679670 -1.942640 1.774550
C 2.723220 -0.986450 1.659950
C 2.460840 0.367820 1.996930
C 1.226420 0.902430 2.451730
C 0.929200 2.230170 2.045310
