52 

C 3.301160 0.790390 -1.369600
C 2.844560 2.074070 -0.969370
C 1.819530 2.287360 -1.928690
C -1.919770 0.624560 -2.270340
C -0.648360 1.256580 -2.244160
C 3.048490 0.014870 1.030250
C 2.579040 1.291070 1.439460
C 3.300450 -0.198810 -0.350810
C 2.428400 2.224470 0.379950
C 1.195690 2.928230 0.339890
C 1.801690 1.015580 2.595430
C 0.623610 1.808370 2.584300
C 0.417310 2.710880 1.507550
C -0.952230 2.586490 1.153490
C -2.637480 1.961410 -0.450770
C -1.343950 2.494840 -0.208390
C -0.469400 2.313060 -1.312270
C 0.840240 2.782040 -1.027120
C -3.024830 1.145130 -1.546240
C 2.639010 -0.995450 1.940200
C 1.845640 -0.362880 2.933610
C 2.167030 -2.181100 1.317360
C 2.340110 -2.372040 -0.079100
C 3.041530 -1.471870 -0.924160
C 0.952890 -2.359470 2.031840
C 1.342360 -2.741710 -1.019470
C 0.173570 -3.095560 -0.294730
C 0.033240 -2.922160 1.107650
C -0.464760 0.936290 2.851460
C -0.468390 -0.483500 2.825100
C 0.731300 -1.241330 2.878660
C 2.589480 -1.163070 -2.234390
C 2.735030 0.216340 -2.538540
C 1.354250 -1.855560 -2.129010
C 0.386100 0.383630 -2.673520
C 1.619730 1.086810 -2.660300
C -3.263020 -0.994170 -1.493590
C -2.049830 -0.787850 -2.202170
C 0.269770 -1.022270 -2.511150
C -0.946300 -2.616510 -1.024710
C -0.924590 -1.641820 -2.057150
C -1.888350 -2.502480 0.031680
C -3.477740 -0.744630 0.650710
C -3.018910 -1.705320 -0.288960
C -1.435800 1.702730 2.154280
C -2.581920 0.986880 1.717940
C -2.581920 -0.433100 1.707550
C -1.458370 -1.204470 2.106350
C -1.253140 -2.349860 1.292490
C -3.371090 1.330460 0.588530
C -4.053560 0.180150 -1.382150
C -4.187450 0.314310 0.025140
