52 

C -2.925380 -1.585300 0.210710
C -1.944570 -2.355860 0.889540
C -1.132050 -3.090060 -0.014530
C -0.953990 -2.730320 -1.376670
C 0.362740 -3.127530 -1.730150
C -2.490950 1.044860 -1.807170
C -3.285010 0.079860 -1.132790
C -2.654130 -1.192320 -1.126640
C -0.767530 -0.543450 -2.587300
C -1.516250 -1.537270 -1.902990
C -1.248370 0.784950 -2.443580
C 0.082970 -3.513160 0.586450
C 0.833320 -3.815640 -0.580570
C 0.466600 -2.695330 1.682130
C -0.162780 -1.648970 2.407120
C -1.538680 -1.654790 2.055850
C -2.314540 -0.466480 2.105470
C -1.670230 0.782840 2.307010
C -2.360590 1.725020 1.499360
C 0.376180 1.953220 2.109590
C 1.787130 1.998780 1.955530
C 1.822680 -0.349680 2.592970
C 0.417500 -0.410370 2.788790
C -0.288100 0.811870 2.631690
C 2.532380 0.855780 2.348750
C 1.778750 -2.452710 1.196480
C 2.381470 -1.247980 1.645730
C 1.835780 -2.907970 -0.147360
C -3.332750 -0.575010 1.121640
C -3.321170 1.697670 0.453900
C -3.769990 0.381300 0.167340
C -1.828440 2.872500 -0.532570
C -2.914780 2.021590 -0.867590
C -0.221830 2.771250 1.114750
C -1.620090 2.758860 0.867480
C 2.347230 2.553610 0.774470
C 1.656130 2.873300 -0.424130
C 0.271770 3.075970 -0.181390
C 1.977410 2.357750 -1.707650
C 3.285800 1.697950 0.139370
C 3.000970 1.493490 -1.236690
C 3.278930 0.701220 1.150750
C 2.099720 -2.009250 -1.214640
C 2.588240 0.245420 -1.773750
C 2.723050 -0.796440 -0.818320
C 2.972710 -0.552340 0.558080
C -0.608550 2.765840 -1.251570
C -0.316680 1.846010 -2.293280
C 1.068360 1.641240 -2.530280
C 1.508940 0.301360 -2.694850
C 0.618910 -0.803730 -2.750120
C 1.111760 -2.031540 -2.234380
