52 

C -1.148380 2.643170 -0.715950
C -2.487110 2.500610 -1.167600
C -0.133130 2.009350 -1.480230
C 1.057940 2.099880 -0.712300
C 3.394120 1.558840 -0.702010
C 2.177730 1.606940 -1.433130
C -3.350890 0.747280 -1.023350
C -3.115830 -0.618180 -0.712310
C -2.481630 -1.667040 -1.429350
C -2.434720 1.315220 -1.947750
C -0.262570 0.931690 -2.395880
C -1.549330 0.335700 -2.470350
C -1.635190 -1.080300 -2.406980
C 2.005870 0.583870 -2.402790
C 0.748990 -0.037680 -2.627290
C -2.480340 -1.669090 1.430630
C -2.178430 -2.855080 0.710370
C -3.113900 -0.623910 0.707690
C -2.177710 -2.852820 -0.709640
C 0.601180 -1.409570 -2.291840
C -0.646470 -2.085610 -2.238960
C -0.889260 -3.084810 -1.259630
C -3.350880 0.741700 1.016520
C -1.638560 -1.077520 2.409360
C -1.538790 0.337370 2.477940
C -2.438980 1.300700 1.950540
C 0.745280 -0.040680 2.628720
C -0.255270 0.938670 2.391310
C 2.005720 0.573060 2.402610
C -0.646920 -2.079960 2.241430
C 0.604980 -1.411090 2.284070
C 3.178960 -0.071910 1.929360
C -0.893090 -3.084660 1.268590
C 1.422960 -1.884280 1.224140
C 2.666300 -1.198360 1.233110
C -3.693510 1.671170 -0.000880
C -3.128190 2.973760 0.007800
C -2.482820 2.490560 1.176740
C -0.136080 2.011490 1.468620
C -1.152480 2.643020 0.704070
C 2.172170 1.604020 1.440380
C 1.059860 2.096380 0.707730
C 3.393460 1.549410 0.717970
C 4.265290 0.591480 1.299930
C 4.342850 0.060930 -0.014950
C -0.247610 -3.150080 0.005460
C 0.978960 -2.434680 -0.007280
C 3.345200 -0.949240 0.011040
C 3.167890 -0.077840 -1.925000
C 2.674410 -1.203860 -1.214380
C 1.425710 -1.879670 -1.235610
C 4.252260 0.611610 -1.320690
