52 

C 1.226890 1.906590 -2.309920
C -0.016150 1.265930 -2.556960
C -0.080570 -0.083530 -2.994460
C -1.240130 -0.873270 -2.774800
C -2.414970 -0.196410 -2.352720
C 1.444500 2.964620 -1.388130
C -1.018350 1.796430 -1.702150
C -2.256120 1.110580 -1.820710
C -3.372890 -0.715320 -1.441920
C -4.208930 0.146730 -0.684060
C 0.536240 3.067740 -0.301430
C -0.746070 2.488320 -0.492330
C -3.204120 1.146920 -0.764110
C -2.750660 -1.603970 -0.525610
C -1.475980 -2.210120 -0.681660
C -0.927440 -2.004380 -1.975220
C 0.464460 -2.255010 -2.102700
C 1.057550 -2.961120 -1.022790
C -3.211140 -1.163030 0.743250
C -0.746790 -2.481780 0.506200
C 0.526520 -3.071910 0.289550
C -4.195150 -0.139890 0.706660
C 2.396230 -2.663410 -0.654360
C 2.683980 -2.961400 0.703890
C -2.264430 -1.117140 1.800640
C -1.016130 -1.788770 1.716040
C 1.433700 -2.968330 1.377080
C 2.639050 -1.365210 -1.176070
C 2.079520 -0.482420 -2.137380
C 0.915850 -1.055860 -2.714860
C 2.236880 0.928580 -2.110220
C 3.118520 -0.707390 -0.012530
C 3.117080 0.712490 0.008250
C 2.916770 1.615040 -1.069570
C 2.918690 -1.608660 1.066460
C 2.684950 2.965530 -0.696980
C 2.393290 2.658760 0.658480
C 2.241380 -0.923460 2.109630
C 0.908140 1.053400 2.720660
C 2.075720 0.486440 2.144660
C 2.640000 1.360520 1.178240
C -2.410160 0.181130 2.357150
C -1.246790 0.879310 2.776200
C -0.091610 0.083110 2.995510
C -0.001450 -1.265630 2.560550
C 1.237720 -1.909300 2.302560
C -3.356130 0.730400 1.451690
C 1.052310 2.958260 1.016960
C 0.468950 2.254630 2.103700
C -0.923810 2.008170 1.977580
C -1.483810 2.206280 0.687780
C -2.755070 1.600780 0.504280
