52 

C -2.852800 0.277880 -2.032120
C -0.764090 -1.581060 -2.074800
C 0.338490 -2.439250 -1.820880
C -1.658930 0.673600 -2.691380
C 0.647120 0.314500 -2.678250
C -0.630420 -0.305480 -2.684450
C 2.846960 -0.280730 -2.032490
C 1.655990 -0.684780 -2.691870
C 1.584870 -2.071200 -2.393210
C -0.351010 2.438800 -1.823420
C -1.595050 2.060730 -2.394320
C 1.757420 2.579070 0.084260
C 1.802780 1.863660 -1.141580
C 0.762120 1.591910 -2.068730
C 2.825730 0.881680 -1.217120
C -1.798350 -1.862720 -1.143410
C -2.825440 -0.884930 -1.217490
C -3.549990 -0.710310 -0.008790
C -1.752270 -2.577380 0.082820
C -2.442040 -2.439590 1.316380
C -3.349870 -1.350150 1.243010
C 0.472570 -3.004980 -0.525340
C -0.474430 -3.002960 0.532790
C -3.549390 0.709620 0.007010
C -3.348870 1.350160 -1.244370
C -2.439830 2.438630 -1.317300
C -2.824340 0.890480 1.214510
C -0.760290 1.578290 2.079950
C -1.794210 1.865760 1.149920
C -1.756070 2.574230 -0.080140
C 1.586460 2.072140 2.391920
C 0.339120 2.438960 1.820910
C -1.596940 -2.062440 2.393420
C -1.664180 -0.675890 2.692490
C -2.851910 -0.274860 2.025460
C 0.647420 -0.313770 2.679080
C -0.632950 0.300300 2.685770
C 1.655920 0.685860 2.691740
C 0.476610 3.004630 0.525710
C -0.477500 3.001930 -0.525980
C -0.348520 -2.433250 1.827410
C 0.768260 -1.589760 2.067740
C 2.845250 0.278080 2.031720
C 3.351310 -1.349130 -1.244730
C 2.442500 -2.437460 -1.322350
C 1.755260 -2.580850 -0.088010
C 3.550900 -0.706940 0.005950
C 2.827620 -0.883530 1.215130
C 1.805390 -1.866120 1.137980
C 2.442880 2.437490 1.319790
C 3.350850 1.348130 1.247020
C 3.549870 0.713000 -0.007330
