52 

C -1.970110 -1.728750 2.037120
C -1.978690 -2.846510 1.161280
C -2.733110 -0.616810 1.592210
C 1.111970 0.146820 2.918100
C -0.289890 -0.079680 2.909800
C -0.736160 -1.404540 2.660600
C -2.215230 -2.680240 -0.229010
C -1.185750 -3.112010 -1.106660
C -2.816450 -1.497950 -0.736180
C -3.302070 -0.646750 0.291480
C -2.335060 -0.729610 -1.829090
C -1.112580 -0.997240 -2.500290
C -0.619540 -2.266440 -2.097100
C 0.788410 -2.385840 -1.955970
C 1.648770 -1.388300 -2.486280
C -2.732560 0.613080 -1.593170
C -1.974990 1.729810 -2.035360
C -0.739930 1.404520 -2.656130
C -0.286470 0.082890 -2.909430
C 1.115030 -0.145520 -2.918860
C -1.976490 2.849980 -1.162630
C -3.302250 0.647440 -0.292910
C 2.832360 -1.173210 -1.731750
C 3.106940 0.219750 -1.758570
C 3.538480 0.549810 -0.446580
C 0.118450 2.355170 -2.042980
C 1.410820 1.938490 -1.627420
C 1.959090 0.831730 -2.328100
C 2.842670 -1.504960 -0.351060
C 1.817260 -2.232200 0.309380
C 0.963720 -2.866870 -0.631450
C -0.220030 -3.468840 -0.128650
C -0.619260 -3.253060 1.216890
C 3.536780 -0.555600 0.444770
C 3.111590 -0.218830 1.757110
C 1.959940 -0.825450 2.324730
C 1.405680 -1.936670 1.635940
C 0.113280 -2.360740 2.043690
C 2.835200 1.173820 1.733180
C -0.615260 3.250220 -1.220200
C -0.226280 3.471840 0.127400
C 0.957000 2.869080 0.630400
C 1.820470 2.232350 -0.299900
C 2.848380 1.500400 0.351290
C -2.817840 1.499870 0.734310
C -1.187090 3.109360 1.108160
C -2.215090 2.681310 0.227010
C 1.649860 1.387720 2.485290
C 0.790180 2.385920 1.955230
C -0.617490 2.266010 2.098510
C -1.117290 0.997760 2.496240
C -2.339400 0.727440 1.825590
