52 

C 1.713780 2.713150 0.474520
C 0.395920 3.234340 0.565080
C 2.171880 1.846200 1.501710
C -0.350960 2.671370 1.633620
C -0.043220 3.403680 -0.774670
C -1.243520 2.736000 -1.135170
C -2.048720 2.198360 -0.096360
C -1.632750 2.186690 1.261320
C 3.165510 0.426640 -0.259850
C 2.603800 1.249170 -1.272010
C 2.941650 0.718430 1.111730
C 1.938010 2.447750 -0.902350
C 0.867580 2.879290 -1.729610
C 3.338500 -0.888830 -0.765880
C 2.183740 0.345190 -2.283370
C 2.762260 -0.932800 -2.062990
C 2.886360 -1.930810 0.086350
C 2.539790 -1.617350 1.427300
C 2.783740 -0.354300 2.028660
C 2.141220 -2.739040 -0.812540
C 0.662730 -1.913300 -2.385610
C 2.033420 -2.150920 -2.100540
C 0.137790 -0.669050 -2.824750
C 0.335850 1.847180 -2.547230
C 0.865830 0.548980 -2.771320
C -1.268020 -0.511870 -2.700290
C 1.798640 0.056870 2.965120
C 1.454190 1.395890 2.641290
C 0.088050 1.783200 2.650920
C 0.865500 -1.010490 2.884590
C -1.370710 -1.608680 2.318800
C -0.509890 -0.660420 2.932260
C -0.824860 0.723780 2.897280
C 0.838820 -2.963880 -0.293210
C 0.443010 -2.690760 1.042940
C 1.282130 -2.005070 1.960630
C -0.938890 -2.527670 1.326080
C -2.688450 -1.272910 1.909820
C -2.878920 0.120900 1.716290
C -1.957610 1.116490 2.136310
C -3.027710 -1.932510 0.698930
C -3.682550 -1.029470 -0.179800
C -0.004520 -2.691120 -1.402630
C -1.367240 -2.419120 -1.110230
C -1.835350 -2.540780 0.224880
C -3.199710 -0.838870 -1.501530
C -2.003860 -1.463040 -1.945120
C -1.059680 1.960410 -2.310380
C -2.978870 0.547240 -1.716820
C -1.824410 0.780670 -2.510010
C -3.512430 0.231680 0.450270
C -2.986810 1.193560 -0.452460
