52 

C 2.557270 0.710010 1.977030
C 1.468110 1.503800 2.424460
C 2.558610 -0.710030 1.976860
C 0.464010 0.709790 3.039170
C -0.812030 1.200510 2.655170
C -0.970050 2.152910 1.613760
C -2.203530 2.107970 0.911620
C -3.165930 1.107810 1.211510
C 3.080900 1.433830 0.873250
C 2.362230 2.606020 0.518380
C 2.284090 2.630160 -0.899290
C 0.032740 2.709830 0.776640
C 1.276750 2.496580 1.427340
C 1.020240 2.568180 -1.543730
C -0.042020 2.824200 -0.636800
C 3.318070 0.709770 -0.325070
C 3.317350 -0.710250 -0.327850
C 3.081120 -1.432540 0.871700
C 2.902700 1.475140 -1.446720
C 2.283060 -2.629200 -0.901140
C 2.365090 -2.606190 0.516330
C 2.151650 0.707280 -2.375580
C 2.142470 -0.712720 -2.378420
C 2.900440 -1.474160 -1.449920
C 0.471690 -0.710220 3.038400
C 1.470440 -1.507760 2.419600
C 1.276360 -2.499230 1.421720
C 1.016280 -2.573420 -1.540390
C -1.227420 -2.471530 -1.327220
C -0.042830 -2.825390 -0.628600
C 0.024230 -2.706870 0.784880
C -0.979720 -2.144720 1.617080
C -0.807890 -1.194880 2.658600
C -1.292310 -1.459310 -2.321050
C 0.975140 -1.514220 -2.485300
C -0.164330 -0.707080 -2.743340
C -3.166360 -1.108320 1.210330
C -2.757420 -0.000750 1.999320
C -1.564450 0.001670 2.769530
C -2.365390 -2.352190 -0.486250
C -2.207140 -2.109530 0.903890
C -3.770590 -0.710990 -0.011740
C -2.481930 0.710340 -2.097620
C -2.477620 -0.709680 -2.098510
C -3.224580 -1.414460 -1.117820
C 0.982810 1.506120 -2.485590
C -1.297260 1.461430 -2.318720
C -0.166930 0.712950 -2.741290
C -2.367430 2.350650 -0.477860
C -1.233880 2.473130 -1.324310
C -3.768880 0.709020 -0.010730
C -3.225930 1.416550 -1.115710
