52 

C 2.494220 -2.310950 1.293160
C 1.569810 -3.047960 0.506520
C -0.705900 -2.972150 0.453480
C 0.417220 -2.867560 1.316170
C -1.969970 -2.399110 -1.442120
C -0.704580 -2.825550 -0.958970
C 1.859420 -1.397360 2.175720
C 2.059230 0.008200 2.142490
C 3.040550 0.362880 1.179260
C 3.153760 1.578380 0.453860
C 2.203700 2.590110 0.754280
C -0.193400 0.476360 2.786970
C 1.079470 0.995060 2.430090
C 1.250710 2.225270 1.741830
C -1.179200 1.472570 2.558120
C -1.041790 2.536630 1.627870
C 0.210770 2.950340 1.102100
C -0.466290 -0.908100 2.627760
C -1.690770 -1.316400 2.035750
C 0.529810 -1.873430 2.323910
C -1.819280 -2.284550 1.004910
C 0.424510 3.147430 -0.287850
C 1.801670 2.936880 -0.562760
C -0.363350 2.727320 -1.392050
C 3.200540 1.439920 -0.958610
C 3.431260 0.047470 -1.114620
C 2.085540 2.025800 -1.614350
C 1.235620 1.216840 -2.414180
C -0.052550 1.814110 -2.434150
C 3.600550 -0.487780 0.189700
C 3.242780 -1.861870 0.173120
C 1.357620 -0.195910 -2.490300
C 2.519650 -0.731990 -1.874820
C 2.661140 -1.926850 -1.120680
C 0.396380 -2.276460 -1.668130
C 1.492070 -2.691570 -0.865860
C -3.198160 -0.679140 -1.641840
C -2.078210 -1.264710 -2.289390
C 0.277390 -1.117600 -2.480130
C -1.122740 0.915990 -2.688210
C -0.972510 -0.495160 -2.738510
C -2.103400 1.516240 -1.854870
C -3.488700 0.853610 0.084100
C -3.098190 0.687970 -1.271080
C -2.938360 1.683110 1.096760
C -1.921650 2.485410 0.514460
C -1.658250 2.448270 -0.880400
C -2.703300 -0.325740 1.936610
C -2.502400 1.036520 2.283460
C -3.481170 -1.218210 -0.358980
C -2.607560 -2.322560 -0.175590
C -3.533720 -0.379970 0.786010
