52 

C 3.098770 1.437670 1.470780
C 3.277880 0.032380 1.568730
C 0.316050 -1.590630 2.557640
C 2.429600 -0.972030 2.105450
C 1.207910 -0.488970 2.644580
C 1.827450 1.849580 1.950950
C -0.412710 1.296070 2.255780
C 0.928230 0.895350 2.496270
C -2.637960 0.558410 2.013190
C -1.338610 0.245890 2.493330
C -1.030230 -1.138960 2.552700
C -1.888740 2.378900 0.636580
C -0.640860 2.332950 1.312740
C -2.982880 1.667190 1.195820
C 3.502230 -0.338920 0.216600
C 3.046020 -1.659220 -0.038610
C 2.544340 -2.077930 1.222120
C 0.399130 -2.672860 1.642020
C 1.465430 -2.853920 0.721870
C 2.577600 0.384730 -1.969850
C 2.136500 -0.934730 -2.254390
C 3.223240 0.674060 -0.738630
C 2.337660 -1.911250 -1.243250
C 1.407640 -2.834790 -0.696850
C 0.917800 -0.806280 -2.971830
C 0.051080 -1.862240 -2.584210
C 0.249260 -2.776780 -1.516140
C 2.296030 2.813990 -0.299760
C 1.556380 2.457130 -1.458240
C 3.219300 1.814760 0.107070
C 1.648350 1.378290 -2.377000
C 0.617380 0.581270 -2.941170
C 0.275950 2.803740 -0.951470
C -0.783600 2.145510 -1.630160
C -0.656490 1.044440 -2.517820
C -1.605360 -0.010350 -2.458350
C -2.786350 0.354270 -1.759220
C -1.276450 -1.390740 -2.405850
C 0.322810 2.935750 0.461610
C 1.648670 2.854230 0.963460
C -3.077220 1.525330 -1.010600
C -1.911020 2.302360 -0.781200
C -1.769880 -2.166100 -1.323360
C -2.780290 -1.637240 -0.477300
C -3.494660 -0.465120 -0.840900
C -1.631310 -2.076050 1.671220
C -0.764940 -2.841240 0.846400
C -0.805670 -2.888960 -0.572220
C -2.748690 -1.590720 0.941600
C -3.434960 -0.421860 1.364910
C -3.915590 1.518490 0.135470
C -4.154220 0.125120 0.269510
