52 

C -3.950180 -1.210460 0.517930
C -2.946590 -1.438990 1.496220
C 1.067110 -1.525320 2.485960
C -0.333570 -1.516940 2.252210
C -3.804500 -1.700900 -0.806710
C -2.564190 -2.349160 -0.566170
C 1.367160 -2.741460 0.308190
C -0.001170 -2.592540 -0.041230
C -0.730130 -2.312670 1.144870
C -2.101360 -2.324150 0.776090
C 1.794060 -2.376870 1.612520
C -3.317110 -0.637040 -1.611150
C -3.350880 0.570570 -0.864810
C -2.558490 1.721010 -1.119980
C -2.082030 -0.797050 -2.293410
C 1.833650 -1.780020 -1.972800
C 0.486460 -1.411990 -2.230200
C 0.164760 -0.097700 -2.661220
C -1.200580 0.281630 -2.569180
C -1.515040 1.574020 -2.071860
C -0.322860 -2.196400 -1.366420
C -1.702370 -1.998730 -1.638990
C 2.208780 -2.504950 -0.810820
C -2.258980 2.523380 0.012690
C -1.033570 3.168470 -0.301430
C 0.965090 2.949860 0.773980
C -0.435340 3.059730 0.981860
C 0.691250 2.232930 -1.742130
C -0.669910 2.585920 -1.544340
C 1.309300 2.798050 -0.595330
C 2.789900 -0.757850 -2.211950
C 2.329600 0.581150 -2.319900
C 0.990880 1.037280 -2.447160
C -2.194190 1.980390 1.323200
C -2.861460 0.742850 1.522560
C -3.624000 0.170760 0.470100
C -0.932180 2.149390 1.951880
C -2.311720 -0.379470 2.196820
C -0.953990 -0.288650 2.602770
C -0.381790 1.010970 2.598080
C 1.664240 -0.247810 2.652900
C 1.037460 1.022460 2.552700
C 1.530610 2.080050 1.743550
C 2.683610 1.840790 0.949970
C 3.073290 1.249700 -1.311750
C 2.602050 2.240430 -0.410200
C 3.568240 -0.977080 -1.044670
C 3.604100 0.291670 -0.407960
C 3.302030 -1.978200 -0.073430
C 3.213010 0.523210 0.937350
C 2.822950 -0.478540 1.865120
C 3.038560 -1.765750 1.305660
