52 

C 0.330160 3.149300 -0.118880
C 1.224660 2.960880 0.967850
C 2.454570 2.629600 0.340110
C -0.965840 2.811840 0.353340
C 1.032640 2.218560 2.163080
C -0.257290 1.823540 2.606420
C -1.200240 2.294600 1.654900
C 2.799550 1.524820 1.162860
C 3.245540 0.520680 0.263250
C 3.150080 -0.862400 0.570650
C 1.639600 -0.252250 2.427990
C 2.392170 -1.223430 1.715960
C 1.931680 1.120450 2.211550
C 3.113580 -1.826370 -0.471400
C 2.621410 -3.047500 0.060630
C -0.530180 0.485290 2.995120
C 0.313660 -0.633280 2.764390
C 2.113420 -2.548840 1.289330
C 2.627090 -1.289960 -1.692900
C 2.605030 0.090070 -2.026890
C 3.159210 0.986660 -1.075350
C 1.573570 2.125390 -2.003270
C 2.595760 2.289340 -1.031300
C 0.417440 2.765200 -1.483190
C -0.744660 2.115300 -1.976810
C -2.030720 0.169910 -2.521400
C -0.799690 0.866060 -2.649810
C 1.543480 -3.017050 -0.863280
C 1.452190 -2.058290 -1.906820
C -0.838910 -1.902450 -1.779620
C 0.322130 -1.329040 -2.362540
C 0.350290 0.038360 -2.744480
C 1.519560 0.825460 -2.572250
C -2.020130 -1.193080 -2.123110
C -2.733800 1.604830 -0.747050
C -1.576710 2.419210 -0.866970
C -3.990720 -0.253380 -1.133480
C -3.111740 0.674970 -1.751510
C -3.004390 -1.896050 0.022210
C -3.157440 -1.391600 -1.296330
C 0.432250 -3.079240 0.018630
C -1.749770 -2.399190 0.457210
C -0.783090 -2.624670 -0.558240
C -1.886660 0.309660 2.613570
C -2.348260 -0.929300 2.095520
C -1.431170 -1.963650 1.770700
C -0.074920 -1.867950 2.180380
C 0.707210 -2.730320 1.367360
C -3.763730 0.002410 0.244740
C -3.030620 1.173430 0.572880
C -2.277030 1.374800 1.759460
C -3.360160 -1.051350 1.106790
