52 

C 0.970060 2.950950 -0.363780
C 2.182280 2.427760 0.159140
C 3.061800 1.758310 -0.732370
C -0.163170 2.969400 0.491780
C 2.183620 1.797070 1.431440
C 1.003670 1.547740 2.181200
C -0.164010 2.169830 1.665370
C -1.405120 0.394840 2.817920
C -1.400990 1.568060 2.017870
C -2.425060 1.919920 1.099210
C 3.909940 0.937360 0.057040
C 3.257430 0.875000 1.316720
C -0.277950 -0.197030 3.446920
C 0.935610 0.390660 3.001580
C 1.760330 -0.696690 2.609150
C 2.788050 -0.417890 1.669720
C 2.850460 -1.127970 0.441560
C 3.471840 -0.285080 -0.517580
C 2.784570 -0.230280 -1.759000
C 2.382390 1.130680 -1.809860
C 1.059640 1.407480 -2.246060
C 1.894440 -2.109480 0.068500
C 1.645100 -2.321760 -1.313270
C 1.933210 -1.268590 -2.221160
C 0.697620 -0.960530 -2.849570
C 0.213780 0.367760 -2.715210
C -0.252420 -1.580660 3.128540
C 0.913880 -1.807210 2.350780
C 0.963240 -2.449430 1.085260
C -0.869630 2.916850 -1.685860
C 0.507820 2.573390 -1.652290
C -2.486350 2.769830 -0.036720
C -1.227230 3.332010 -0.375820
C -3.302730 0.884010 -0.730280
C -2.807670 2.108600 -1.251610
C -1.363160 -1.935250 -2.285280
C -1.874650 -0.616440 -2.159970
C -2.840560 -0.393640 -1.143190
C -0.056680 -2.162320 -2.793180
C -1.174070 0.572430 -2.494980
C -1.691410 1.829260 -2.083710
C -2.105760 -2.443320 -0.031180
C -2.849310 -1.233960 0.001470
C -1.575310 -2.901180 -1.266260
C -0.337120 -3.457340 -0.849130
C 0.560180 -3.048610 -1.871000
C -1.390130 -1.900190 2.341170
C -1.360670 -2.679370 1.154390
C -0.164160 -3.096110 0.513230
C -3.275220 0.858980 0.689240
C -2.932830 -0.432340 1.170590
C -2.157580 -0.705490 2.328510
