52 

C -1.027850 -2.502220 1.347740
C -0.202280 -1.812070 2.274450
C -0.491730 -0.503000 2.742590
C -1.821810 -0.051970 2.532750
C -2.197850 1.313660 2.431990
C 1.817760 0.041790 2.531580
C 0.495800 0.517450 2.738290
C 1.146610 -2.240790 2.159650
C 2.195410 -1.323600 2.433880
C -3.083440 1.409270 1.326080
C -2.629210 2.346960 0.361240
C -1.532360 2.974120 1.009350
C 0.697290 3.148890 0.125330
C -0.699920 3.145520 -0.128290
C 0.199420 1.824110 2.267850
C -1.154640 2.239100 2.164130
C 1.036840 2.502820 1.343450
C -3.259180 -0.146930 -0.693900
C -2.635720 0.747270 -1.603990
C -3.261440 0.149810 0.694770
C -2.288060 1.966070 -0.963550
C -1.029850 2.499640 -1.349150
C -0.202090 1.812100 -2.275780
C 1.145570 2.244420 -2.159700
C 1.535290 2.978520 -1.008330
C -3.084160 -1.406820 -1.325170
C -2.195480 -1.317450 -2.429130
C -1.151810 -2.242870 -2.162910
C -0.491960 0.503110 -2.743810
C -1.820560 0.048230 -2.533150
C 2.194090 1.326060 -2.431110
C 1.816880 -0.039200 -2.532590
C 0.495790 -0.517110 -2.739470
C 0.200890 -1.823650 -2.267820
C 1.037680 -2.502580 -1.342990
C -2.630080 -2.345130 -0.360890
C -2.285300 -1.965940 0.963420
C -2.637840 -0.747440 1.601680
C -1.536080 -2.976680 -1.009520
C 0.698110 -3.147980 -0.124540
C -0.699720 -3.146270 0.125450
C 1.535710 -2.976780 1.009270
C 2.632130 -0.741550 -1.606030
C 2.293130 -1.960200 -0.960730
C 2.631480 -2.345380 0.363500
C 2.630680 2.345650 -0.363330
C 3.083650 1.406370 -1.327190
C 3.258840 -0.150610 0.693910
C 2.633550 0.742220 1.604030
C 2.293000 1.961870 0.961490
C 3.260650 0.147500 -0.694450
C 3.084140 -1.408290 1.329620
