52 

C -3.339480 -1.017570 -0.559740
C -3.738730 0.344930 -0.532980
C -3.443410 0.638920 0.824530
C -3.118290 1.088630 -1.571460
C -2.627200 2.071080 -0.671400
C -0.515100 3.066970 -0.383360
C -1.451140 2.541770 -1.313150
C -1.179720 1.027710 2.672580
C -1.503630 1.929090 1.624180
C -2.580140 1.760930 0.713530
C -0.522910 2.744170 0.999470
C -2.034840 0.672200 -2.389530
C -1.575670 -0.671550 -2.381000
C -2.332340 -1.447760 -1.463680
C -1.710480 -2.458720 -0.684110
C -0.496350 -3.011130 -1.171190
C -1.052660 1.697750 -2.383350
C 0.331060 1.410060 -2.521460
C 0.729040 0.050490 -2.620300
C -0.215500 -1.009810 -2.609100
C 0.189090 -2.306830 -2.196190
C 2.740050 0.765690 -1.423150
C 2.003410 -0.258350 -2.075220
C 1.155060 2.396110 -1.917140
C 2.456660 2.156980 -1.402290
C 0.806400 3.276480 -0.858930
C 0.339300 -3.505440 -0.134950
C 1.628160 -3.588450 -0.725190
C 2.301490 -1.564400 -1.604220
C 1.501130 -2.714070 -1.836830
C -1.931050 -2.245880 0.702430
C -3.030010 -1.350410 0.785590
C 0.170110 -2.958910 1.164720
C -0.933850 -2.254120 1.713370
C -0.888750 -1.245960 2.712380
C -1.865560 -0.215630 2.685590
C -2.926090 -0.309620 1.745990
C 2.107980 -2.809130 0.360570
C 1.424780 -2.409600 1.539590
C 2.768400 -1.723140 -0.272600
C 3.041360 -0.606100 0.560570
C 2.444710 -0.346000 1.822640
C 1.455370 -1.229760 2.329210
C 0.359300 -0.638010 3.011040
C 3.299930 0.608780 -0.127640
C 2.724720 2.662250 -0.102580
C 3.056140 1.636350 0.821610
C 1.512840 3.230170 0.372020
C 0.175620 0.770070 3.008950
C 2.352510 1.067920 1.916240
C 1.124400 1.614460 2.373910
C 0.813890 2.666450 1.472070
