52 

C 2.865920 -1.076620 -1.384460
C 3.385170 -0.735960 -0.107410
C 2.291210 -0.160200 -2.304460
C 1.060560 -2.479540 -1.479180
C 2.401760 -2.369790 -1.025690
C 1.089190 -0.493340 -2.983170
C 0.419520 -1.593410 -2.384930
C 2.183160 1.198780 -1.906990
C 2.447070 1.515120 -0.548020
C 3.059490 0.576990 0.324530
C 1.752550 2.535570 0.153970
C 1.217000 1.837810 -2.728330
C 0.414870 2.686240 -1.920090
C 0.716390 3.137580 -0.607910
C -1.608900 -2.305450 -1.220880
C -0.980290 -1.469150 -2.181070
C 0.540920 0.761000 -3.360620
C 1.544660 2.449520 1.556050
C 1.961940 1.330240 2.323900
C 2.945880 0.491020 1.737380
C 0.251510 2.987800 1.789390
C -0.145000 3.400740 0.489900
C 2.898060 -0.870990 2.136200
C 3.305690 -1.620180 1.000850
C 2.548610 -2.637080 0.361180
C 1.550550 -0.948310 2.577490
C -2.455210 -0.171340 2.034120
C -1.124540 -0.435340 2.453880
C -0.667520 -1.699270 1.995400
C 0.732510 -1.934950 1.966000
C 1.237530 -2.724900 0.899520
C 1.087830 0.359500 2.880730
C -0.601260 1.999850 2.349060
C -0.290950 0.674520 2.753570
C -0.907530 -2.913870 -0.146470
C 0.502990 -3.004180 -0.283220
C -3.347010 -1.066230 1.385800
C -2.830960 -2.251290 0.797790
C -1.452900 -2.447230 1.078780
C -4.078920 -0.494090 0.311840
C -1.741310 2.175230 1.520820
C -3.391880 0.748630 0.320720
C -2.693920 1.122370 1.499530
C -0.874080 2.119010 -2.102660
C -2.732080 1.192210 -0.855860
C -1.730080 2.191690 -0.971970
C -1.403280 2.777000 0.279830
C -2.890530 -2.193560 -0.619780
C -3.462280 -0.922840 -0.893300
C -2.682580 0.004980 -1.633340
C -1.535070 -0.189300 -2.446900
C -0.784450 0.935030 -2.881490
