52 

C 1.508590 2.914030 -0.566730
C 1.351290 1.778760 2.158790
C -1.019350 2.157080 2.047800
C 0.275930 2.503650 1.580190
C 0.372400 3.051950 0.273860
C 1.199670 2.597530 -1.916120
C 1.942170 1.437350 -2.261400
C 1.323770 0.350950 -2.935110
C -0.218730 2.553950 -1.968150
C -2.098980 1.180690 -1.976740
C -0.836160 1.429260 -2.576770
C -0.086840 0.341550 -3.098190
C -1.913670 2.810360 -0.145220
C -0.642710 3.079010 -0.718750
C -2.707020 1.950600 -0.950100
C -2.121220 2.521430 1.229500
C 3.199480 -0.019070 -0.697450
C 2.599670 -1.096750 -1.401300
C 2.791380 1.268450 -1.135880
C 1.710470 -0.943550 -2.497810
C 0.593470 -1.818440 -2.555790
C 2.432830 -2.029200 -0.343380
C 1.298200 -2.880620 -0.408350
C 0.485560 -2.836820 -1.572030
C -0.745040 -3.320280 -1.054040
C -2.489530 -0.162070 -1.729840
C -1.696300 -1.270050 -2.129420
C -0.517650 -0.992360 -2.871120
C -1.815240 -2.422070 -1.307760
C 3.508660 -0.298750 0.659980
C 2.920050 -1.567040 0.907820
C 3.188370 0.501050 1.788780
C 2.514870 1.672340 1.351820
C 2.516300 2.084750 -0.006970
C 2.073020 -1.486170 2.044700
C 2.319360 -0.223810 2.646600
C 0.603260 -2.978560 0.826130
C 0.794810 -2.091790 1.918590
C -0.292910 -1.360720 2.465320
C -0.139890 -0.010290 2.877020
C 1.158840 0.563880 2.868400
C -1.213560 0.895890 2.670810
C -0.639530 -3.476930 0.353360
C -1.734840 -2.884040 1.035420
C -1.537470 -1.841340 1.978950
C -3.193980 -0.148500 -0.496950
C -3.038730 -1.213810 0.429050
C -2.507030 -2.433210 -0.067710
C -3.381470 1.161240 0.018640
C -2.580000 -0.907890 1.737640
C -2.455980 0.444650 2.151970
C -3.058570 1.463770 1.367940
