52 

C -3.367040 0.605800 1.048480
C -3.768100 -0.171520 -0.070200
C -3.414940 -1.546180 -0.115480
C -2.494410 -1.804370 0.934520
C -1.889920 -1.037350 1.965450
C -2.440380 0.267480 2.069920
C -1.942750 -2.729130 -1.211650
C -2.958290 -1.763770 -1.442340
C 0.101300 -0.115330 3.044850
C -0.562090 -1.213860 2.436840
C -1.799540 -2.800890 0.199300
C -3.206360 0.336490 -1.271380
C -2.549360 1.547740 -0.928240
C -1.369560 1.976920 -1.591900
C -0.730630 1.085530 -2.494010
C 0.622270 1.420860 -2.765630
C 1.214010 2.606290 -2.254670
C -1.167850 -0.264730 -2.540640
C -0.234980 -1.331160 -2.445520
C -2.465090 -0.583570 -2.059080
C -0.639020 -2.481070 -1.716860
C 0.599460 3.329900 -1.198650
C -0.711570 2.956000 -0.801370
C -0.862510 3.015170 0.609370
C -1.853690 2.302990 1.335210
C -2.825730 1.772380 0.446380
C 0.395170 2.963240 1.266630
C -1.662950 1.403780 2.417560
C -0.361370 1.224270 2.956160
C 0.605580 2.068710 2.349240
C 1.741630 1.230470 2.196940
C 3.101750 0.203680 0.512090
C 2.432440 1.371590 0.964300
C 3.159480 -0.992080 1.275820
C 1.160130 3.240890 0.102950
C 2.322870 2.146510 -1.496080
C 2.202250 2.295630 -0.089080
C 2.189950 -1.142460 2.302400
C 1.501530 -0.017930 2.829610
C 3.375180 -2.051570 0.355310
C 2.591070 0.806520 -1.882000
C 3.100390 -1.458680 -0.905420
C 3.146910 -0.039570 -0.886200
C 0.153530 -3.046380 -0.683060
C 1.555930 -2.823390 -0.677770
C 1.962220 -1.869820 -1.648390
C 1.150510 -1.019890 -2.445380
C 1.525520 0.327790 -2.689370
C 1.526140 -2.274740 1.760430
C 0.106610 -2.250010 1.732760
C -0.441000 -2.906430 0.598900
C 2.175270 -2.770780 0.598970
