52 

C -3.686140 -0.294490 0.705780
C -3.263720 0.831590 1.460760
C -2.396530 0.318780 2.461500
C 1.349580 -1.278030 2.485310
C 0.067790 -0.708190 2.706370
C -3.264380 0.835980 -1.460940
C -2.690790 1.895570 -0.709430
C -3.680390 -0.297930 -0.714210
C -2.691850 1.893040 0.710600
C -1.589720 2.289000 1.513720
C -1.589170 2.286740 -1.515570
C -0.616750 2.935650 -0.709440
C -0.613350 2.935680 0.710580
C 0.677670 2.650590 1.228730
C 2.164010 1.061910 2.213530
C 0.870330 1.647460 2.215220
C -0.071780 0.705000 2.705750
C -1.351180 1.279640 2.483640
C 2.394770 -0.317040 2.461900
C -3.026410 -1.473100 -1.170000
C -2.621330 -2.163580 0.002880
C -1.366970 -2.829230 0.000270
C -2.159760 -1.065400 -2.218410
C 0.070100 -0.701430 -2.706060
C -0.865970 -1.650770 -2.217070
C -0.674840 -2.650320 -1.226710
C 2.395460 -0.323230 -2.461420
C 1.347570 -1.281230 -2.485960
C -1.356810 1.275370 -2.484910
C -2.400740 0.313090 -2.459510
C 0.676430 2.655590 -1.224910
C 0.871450 1.653260 -2.211750
C -0.071700 0.711500 -2.701620
C 2.159630 1.055800 -2.218290
C -3.032910 -1.466870 1.169760
C 0.616830 -2.937110 0.708240
C -0.673960 -2.652040 1.226980
C -0.873190 -1.650930 2.214160
C -2.164750 -1.060790 2.217530
C 1.587920 -2.287170 1.515110
C 1.593750 -2.286830 -1.514050
C 0.617580 -2.934790 -0.711770
C 3.266830 -0.828220 -1.460360
C 2.694860 -1.889600 -0.710190
C 2.689450 -1.894080 0.709800
C 3.683770 0.301160 -0.707310
C 1.369930 2.829890 0.001910
C 2.623120 2.162100 -0.001830
C 3.028080 1.470940 -1.174320
C 3.034150 1.471020 1.168580
C 3.262110 -0.836470 1.464740
C 3.681920 0.292490 0.712670
