52 

C -1.335270 -0.484190 -2.897170
C -0.248460 -1.398190 -2.896860
C -0.329920 -2.435200 -1.930170
C -1.439720 -2.814880 -1.129740
C -1.444140 -3.262700 0.217820
C -2.525970 -2.996810 1.098370
C -0.445790 -2.314930 2.097870
C -1.862540 -2.219010 2.083970
C 0.906940 -2.497380 -1.235310
C 0.980770 -2.713860 0.166210
C -0.213750 -3.003010 0.877530
C 2.082020 -2.175620 0.883170
C -2.963480 -1.971040 0.219240
C -2.924860 -0.715190 0.880970
C -2.204310 -0.840790 2.098170
C 1.827930 -1.491460 2.101310
C 0.477910 -1.316320 2.505420
C 0.003320 0.005480 2.715590
C -1.380690 0.242540 2.503860
C -1.781730 1.543000 2.098320
C -2.499470 1.680940 0.880820
C -2.840120 0.505550 0.160480
C -2.103810 2.877240 0.226040
C -1.330940 3.690170 1.096830
C 0.367540 2.328010 2.096490
C -0.995660 2.725510 2.083460
C 2.857400 -0.513650 2.078870
C 2.232730 0.761470 2.097710
C 0.908190 1.078370 2.499700
C -1.720910 2.654690 -1.123150
C -1.940600 1.508400 -1.932010
C -2.612710 0.465920 -1.240660
C -2.343000 -0.745140 -1.931330
C -2.528450 -1.903220 -1.130790
C -0.386590 3.140400 -1.133320
C -1.085830 0.913760 -2.897510
C 0.248670 1.399130 -2.897110
C 0.527020 2.402840 -1.931960
C -0.225490 3.550980 0.216450
C 0.841360 2.891380 0.882180
C 1.857160 2.207410 0.163280
C 1.709380 2.032550 -1.238160
C 3.544640 0.387310 0.223450
C 2.704980 1.323920 0.882360
C 3.864130 -0.688990 1.092890
C 1.814850 -1.656140 -1.931340
C 2.909890 -1.238320 -1.129590
C 3.188320 -1.581950 0.219780
C 2.277140 0.928490 -1.927470
C 1.335730 0.485490 -2.893890
C 1.085860 -0.912350 -2.896630
C 3.160350 0.159410 -1.124440
