52 

C 1.989330 -2.711550 0.782090
C 1.863260 -0.800390 2.470940
C 2.439570 -1.505390 1.381260
C 2.003200 0.612680 2.458940
C 2.766080 1.227260 1.430900
C 2.530270 2.433850 0.720290
C 0.718330 1.134570 2.764260
C 0.285650 2.136520 1.855720
C 1.151610 2.725030 0.896430
C -1.446320 2.646510 0.211640
C -1.089380 2.176940 1.503390
C -1.977930 1.301120 2.181540
C 3.234660 0.538180 0.281090
C 2.977170 -0.857640 0.237630
C 2.522440 -1.424690 -0.982260
C 2.099880 -2.734750 -0.633430
C 2.969440 2.646930 -0.613180
C 3.162440 1.276220 -0.929920
C 2.354190 0.736780 -1.965400
C 1.952470 -0.624600 -2.007690
C 1.024890 -3.325390 -1.348950
C 0.698330 -1.049870 -2.520310
C 0.396570 -2.407010 -2.231160
C -0.945110 -2.757820 -1.925740
C 1.810000 2.799900 -1.418620
C 1.421210 1.754480 -2.297500
C -0.274980 -0.032740 -2.706420
C 0.334230 -3.639930 -0.148740
C 0.638600 -3.020850 1.092460
C -0.964510 -3.306360 -0.616090
C -0.036550 -2.169960 2.007150
C 0.539010 -1.166080 2.830220
C -1.478640 0.169500 2.879100
C -0.097470 0.052030 3.187350
C -2.083090 -0.890760 2.153200
C -1.694790 -2.490640 0.288210
C -1.374110 -1.975140 1.571890
C -3.149600 -0.369550 1.373880
C -2.503150 -1.741530 -0.607240
C -3.461060 0.445930 -0.840700
C -3.235470 -0.682400 -0.008580
C -0.855930 2.234900 -2.026520
C 0.093860 1.332110 -2.573630
C -2.229800 1.940700 -1.820700
C -2.575180 0.568820 -1.943680
C -1.616960 -0.377010 -2.394940
C -1.861590 -1.674470 -1.872280
C -0.530880 2.935290 -0.834790
C 0.824080 3.085600 -0.437420
C -3.193900 1.044630 1.494470
C -3.498720 1.445830 0.166860
C -2.625680 2.334230 -0.515010
