52 

C 3.322400 0.931940 0.738850
C 2.598700 2.130070 0.499630
C 3.569080 0.481240 -0.584960
C 3.145640 -0.861840 -0.767460
C 2.741810 -1.557100 0.403050
C 3.041860 1.221900 -1.675780
C 2.526780 0.383340 -2.699500
C 0.273440 3.046780 -0.171130
C 0.947030 2.409940 -1.246910
C 2.292860 2.134800 -0.887070
C -0.224860 -2.886810 -0.976420
C 1.713590 -2.518250 0.214770
C 1.129510 -2.472330 -1.078790
C 2.694600 -0.899160 -2.113420
C 1.494020 -1.654450 -2.180920
C -0.720200 -3.149400 0.328260
C -0.151950 -2.877100 1.600830
C 1.261550 -2.755800 1.539800
C -2.085780 -2.807320 0.142200
C -3.186080 -1.337360 -1.189320
C -2.297810 -2.444980 -1.214350
C 0.611380 -0.806080 -2.900430
C -0.758210 -1.022860 -2.594200
C -1.074090 -2.219930 -1.898710
C 1.646500 -1.813980 2.530370
C 2.606100 -1.119570 1.747150
C 2.745920 0.288550 1.865890
C 0.539920 -1.032520 2.956180
C 0.509990 0.383980 2.860310
C 1.688250 1.049710 2.430200
C 0.500760 2.869820 1.219360
C 1.693850 2.195960 1.592040
C -2.458890 -1.775690 1.043870
C -1.693220 -1.112750 2.039260
C -0.536380 -1.817770 2.464850
C -1.772100 0.302200 2.129830
C -0.657870 1.103830 2.493660
C -0.649440 2.395540 1.903870
C -2.751840 0.965280 1.344410
C -2.781220 2.276080 0.799080
C -1.613820 3.034120 1.080080
C -3.549000 0.291230 0.381790
C -3.382890 -1.107000 0.198000
C -2.914930 2.150440 -0.609030
C -3.434620 0.864230 -0.912430
C -1.669180 2.359610 -1.257760
C -1.003560 1.439650 -2.110520
C -1.531180 0.144540 -2.357130
C -2.788960 -0.090840 -1.741530
C -1.136050 3.202010 -0.246560
C 0.403710 1.566440 -2.251810
C 1.124880 0.517710 -2.881460
