52 

C 1.433860 2.110000 -1.857170
C 2.394160 1.073080 -1.995760
C 3.312730 1.159260 -0.916270
C 0.482290 -2.009560 -2.401210
C 2.054850 -0.241500 -2.411970
C 0.755310 -0.671320 -2.790090
C -0.151270 0.421670 -2.794040
C -1.462660 0.023500 -2.422170
C 0.183210 1.751900 -2.426510
C -2.292980 1.084420 -1.973200
C 2.760850 -1.002950 -1.443340
C 3.499590 -0.196510 -0.537580
C 2.266970 -2.190010 -0.840470
C 1.209980 -2.851910 -1.519510
C 2.213190 -2.171060 0.578410
C 2.723100 -1.171860 1.449120
C 3.572290 -0.185950 0.880530
C 0.960460 -2.734270 0.938880
C 0.324840 -1.986050 1.964930
C -1.060390 -2.245130 1.790000
C 0.625770 -3.317440 -0.311850
C 3.703430 1.043530 1.578810
C 0.691130 -0.747100 2.554330
C 2.073030 -0.430960 2.471340
C 2.578650 0.895430 2.432850
C 2.125570 2.411300 0.630770
C 3.344310 1.724910 0.385840
C 1.395810 2.680430 -0.557300
C 0.014040 2.823810 -0.262920
C -1.794500 2.273640 1.076700
C -0.383400 2.429050 1.042000
C -1.872770 -1.175770 2.251550
C -1.478630 0.169730 2.477020
C -0.088010 0.439920 2.575460
C 0.326090 1.677600 2.015890
C 1.724250 1.891130 1.889660
C -2.252930 1.209620 1.897790
C -1.937080 2.341130 -1.416010
C -0.546270 2.595610 -1.547590
C -3.721150 1.773990 0.027710
C -2.511730 2.501750 -0.127450
C -3.736800 -0.298340 0.918670
C -3.502310 1.065160 1.238530
C -3.034000 -1.403840 1.466720
C -0.738600 -3.113150 -0.648300
C -2.646070 -2.143050 0.318010
C -1.436090 -2.845960 0.559420
C -3.377680 0.939090 -1.068360
C -3.545120 -0.345840 -0.487550
C -2.688050 -1.402900 -0.893130
C -1.712100 -1.280100 -1.917280
C -0.779180 -2.348120 -1.843930
