52 

C -2.363320 -0.701070 -2.678840
C -2.659430 -1.510140 -1.550010
C -2.658580 -1.512190 1.550350
C -2.367150 -0.699860 2.678060
C -1.983300 -2.434490 -0.710410
C -1.982180 -2.435310 0.709620
C -0.957580 -0.681070 -2.878840
C -0.235510 -1.720980 -2.235560
C -0.679110 -2.628590 -1.237570
C 2.742370 0.373210 -1.714350
C 1.480570 -0.000910 -2.247730
C 1.127850 -1.363830 -2.061730
C 1.818830 -2.205260 -1.150120
C -2.712570 0.664570 2.489700
C -1.645140 1.594840 2.381510
C -1.516480 2.465410 1.267000
C -0.648370 0.707370 2.866660
C -0.261050 2.821730 0.707140
C 0.764870 2.227760 1.489000
C 0.613770 1.117350 2.361170
C -0.677930 -2.629600 1.236550
C -0.239790 -1.720270 2.235420
C -0.961060 -0.677770 2.875300
C 1.123660 -1.362920 2.062770
C 1.481450 -0.000420 2.241860
C 2.744620 0.373060 1.711410
C -3.330950 0.665680 1.211400
C -2.156150 2.421710 -0.000040
C -3.114330 1.373700 -0.000310
C 0.779540 2.220170 -1.478570
C -1.516080 2.463070 -1.266950
C -0.257230 2.816280 -0.712880
C 1.957050 2.397210 -0.704830
C 3.068360 1.578240 -1.037530
C 3.060380 1.581850 1.036450
C 1.943310 2.397510 0.715110
C -3.421750 -0.659560 0.709490
C -3.422620 -0.656210 -0.710510
C -3.329330 0.668320 -1.213830
C -1.646320 1.593740 -2.382200
C -2.712740 0.662670 -2.492970
C 0.610510 1.116180 -2.355550
C -0.649550 0.705090 -2.865100
C 4.023080 1.432080 0.003410
C 4.341560 0.048250 0.008700
C 1.816390 -2.203820 1.152010
C 3.118770 -1.857100 0.704770
C 3.583100 -0.558830 1.044360
C 1.297970 -2.853740 0.000810
C -0.110600 -3.033570 -0.000930
C 3.598780 -0.542460 -1.047590
C 3.119450 -1.837100 -0.715090
