28
0 1
C        1.231183    2.028702   -0.881620 
C        0.450524    1.353115   -1.967255 
C       -0.962742    1.509772   -1.602784 
C        0.336783    2.415324    0.139098 
C       -1.031734    2.163928   -0.323944 
C        0.773572    1.799518    1.397757 
C        2.209718    1.030553   -0.337670 
C        1.980809    0.925624    1.064108 
C        0.990309    0.094362   -2.166385 
C        2.136402   -0.133096   -1.148743 
C        0.163992   -1.118759   -2.129043 
C       -1.838048    0.328065   -1.563556 
C       -1.252500   -1.001956   -1.775738 
C       -1.955178    1.409880    0.533355 
C       -2.519598    0.317094   -0.329588 
C       -0.124313    1.061424    2.164265 
C       -1.487875    0.832174    1.702430 
C        1.767425   -0.357782    1.648279 
C        0.473765   -0.283830    2.405418 
C        1.931787   -1.411521   -0.566666 
C        0.763404   -2.044379   -1.252721 
C        1.707544   -1.517037    0.836511 
C       -1.506468   -1.809583   -0.615030 
C       -2.241942   -0.989270    0.359731 
C       -1.671458   -0.708573    1.588653 
C       -0.400102   -1.303998    1.994520 
C       -0.238904   -2.433849   -0.205824 
C        0.313645   -2.155904    1.032443 
