32
0 1
C       -2.891647    0.000010   -0.000002 
C       -2.396612    0.371179   -1.325834 
C       -1.671659    1.583862   -1.219390 
C       -2.396616    0.962617    0.984363 
C       -1.712516    2.006960    0.251302 
C       -1.671664    0.264090    1.981347 
C       -2.396609   -1.333804    0.341465 
C       -1.712521   -1.221111    1.612418 
C       -1.712518   -0.785845   -1.863722 
C       -1.671667   -1.847947   -0.761963 
C       -0.437573   -0.654439   -2.376322 
C       -0.316701    1.713769   -1.684389 
C        0.316707    0.601950   -2.326326 
C       -0.437577    2.385181    0.621407 
C        0.437577    2.385211   -0.621292 
C       -0.316707    0.601837    2.326355 
C        0.316701    1.713688    1.684472 
C       -0.437575   -1.730748    1.754917 
C        0.437573   -0.654553    2.376291 
C       -0.316694   -2.315611   -0.641969 
C        0.437575   -1.730663   -1.755001 
C        0.316694   -2.315642    0.641857 
C        1.671664    0.264186   -1.981334 
C        1.712521   -1.221033   -1.612477 
C        1.712516    2.006972   -0.251205 
C        1.671659    1.583803    1.219467 
C        2.396616    0.962665   -0.984316 
C        1.712518   -0.785935    1.863684 
C        1.671667   -1.847984    0.761873 
C        2.396609   -1.333788   -0.341530 
C        2.396612    0.371115    1.325852 
C        2.891647    0.000010    0.000002 
