96 

C -4.17380 2.04725 1.70630
C -4.61263 .73996 1.77495
C -3.88080 -.19635 2.56583
C -2.06360 -2.27239 2.98812
C -1.64328 -.96243 3.29463
C -2.61015 .11678 3.10328
C .22496 .71327 3.37970
C -.71446 1.77291 3.14145
C -2.14348 1.47439 3.01057
C -2.98276 2.42362 2.40060
C 1.13179 3.29176 2.61089
C -.24419 3.06060 2.67877
C .23657 -3.04196 2.70033
C -1.13935 -3.27342 2.63211
C 2.97578 -2.40690 2.42129
C 2.13579 -1.45347 3.02380
C .70649 -1.75106 3.15477
C -.23313 -.68978 3.38417
C 2.60233 -.09513 3.10755
C 1.63512 .98539 3.29011
C 2.05559 2.29333 2.97498
C -4.99541 .70847 -.64471
C -4.52720 2.08141 -.71494
C -5.08738 .06226 .57386
C -4.20768 2.76430 .44244
C -3.09662 3.67997 .43139
C -2.32440 3.88947 -.73419
C -1.05977 4.47847 -.54190
C -1.08778 3.89310 1.82706
C -2.42406 3.54982 1.68486
C -.49822 4.60593 .74394
C -3.12766 -1.81655 -2.63305
C -4.09224 -1.36231 -1.69134
C -4.45057 -.00568 -1.77414
C -3.64557 .91864 -2.53083
C -1.35870 1.34415 -3.34140
C -2.52227 .48821 -3.23988
C -2.36818 -.91559 -3.39360
C 1.06381 1.48350 -3.62892
C -.08056 .72316 -3.71349
C -2.52706 3.01440 -1.88739
C -3.64976 2.18972 -1.86685
C .01902 4.28685 -1.49618
C -.12594 3.35030 -2.54634
C -1.37842 2.62565 -2.71409
C 1.06066 2.78960 -3.04416
C -4.20304 -2.06066 -.41188
C -4.71397 -1.33152 .67830
C -2.31608 -2.99410 -2.38094
C -2.40611 -3.69222 -1.16785
C -3.33200 -3.20673 -.13600
C -1.25392 -4.43057 -.78170
C -1.06141 -2.80902 -3.02582
C 1.37702 -2.64263 -2.69380
C .12458 -3.36632 -2.52265
C -.02159 -4.29606 -1.46656
C 3.64724 -2.20145 -1.84706
C 2.52467 -3.02618 -1.86312
C .08038 -.74705 -3.70801
C -1.06390 -1.50685 -3.61934
C 2.36781 .89369 -3.39717
C 2.52157 -.50911 -3.23317
C 1.35809 -1.36554 -3.32977
C 3.64403 -.93505 -2.51973
C -.94165 -4.64819 .61636
C -1.74077 -4.08941 1.57269
C -3.00071 -3.48059 1.20245
C -3.27891 -2.52153 2.22892
C -4.14382 -1.49834 1.98931
C .49283 -4.60027 .77630
C 1.08116 -3.88024 1.85529
C 2.41773 -3.53791 1.71249
C 2.32082 -3.89376 -.70428
C 1.05604 -4.48150 -.50971
C 3.09178 -3.67657 .46087
C 4.99172 -.71227 -.63359
C 4.52352 -2.08564 -.69485
C 4.20283 -2.76074 .46681
C 5.08220 -.05766 .58057
C 3.12642 1.79954 -2.64175
C 4.08976 1.35147 -1.69565
C 4.44828 -.00574 -1.76853
C 1.25045 4.42604 -.81075
C 3.32764 3.20643 -.15392
C 2.40315 3.68511 -1.19045
C 2.31461 2.97890 -2.39898
C 4.70853 1.33678 .67495
C 4.19898 2.05847 -.42092
C 4.13702 1.51253 1.98419
C 3.27184 2.53736 2.21575
C 2.99477 3.48935 1.18224
C 1.73438 4.10057 1.54658
C .93639 4.65293 .58540
C 4.16750 -2.03509 1.72571
C 4.60618 -.72727 1.78573
C 3.87349 .21446 2.56933
