96 

C .69181 -4.13042 -1.25428
C 1.87153 -3.90803 -.55959
C 2.94086 -3.33300 -1.31411
C 4.08497 -2.72245 -.66556
C 4.10521 -2.63435 .70452
C 2.94755 -3.08621 1.47800
C 1.79175 -3.66543 .87322
C -.55225 -4.28326 -.56541
C -.68492 -3.89419 .77448
C 5.00993 -.44622 -.88397
C 5.07830 -.35912 .57687
C 4.49753 -1.58736 -1.47875
C 4.62573 -1.43741 1.34694
C 3.84434 -1.19442 2.49630
C 3.52386 .11966 2.89472
C 2.39885 .26258 3.76789
C -3.07432 -3.50815 .31449
C -2.00103 -3.47097 1.23253
C .51673 -3.51840 1.51007
C -.90881 -2.14633 3.08261
C .39281 -2.66818 2.68803
C 1.56708 -2.04278 3.20423
C 2.82806 -2.26205 2.58791
C 1.46239 -.85946 3.98781
C 3.84756 2.86002 -.29454
C 4.64093 .83126 -1.39856
C 4.63190 1.74650 -.26572
C 3.90847 1.23240 2.07611
C 4.74390 .96718 .95924
C 3.06218 3.22918 .86932
C 3.03992 2.41450 2.03830
C 3.08384 3.17499 -1.47848
C 2.98800 2.23637 -2.54092
C 3.70413 .96978 -2.44327
C 3.10585 -.22826 -3.00936
C 3.55927 -1.46415 -2.54885
C 1.83479 2.29577 -3.33274
C 1.93333 3.87493 -1.04805
C .74340 3.86152 -1.78731
C .78447 3.20264 -3.04318
C -1.63112 2.95974 -3.05984
C -.42134 2.65197 -3.61237
C .68206 3.80747 1.12368
C 1.90497 3.86889 .40771
C -1.73253 3.11128 2.39400
C -1.78838 3.51224 1.02535
C -.57485 3.90378 .38503
C -.53076 3.97455 -1.07448
C -1.68777 3.66539 -1.78401
C .72379 3.23478 2.42501
C 1.69395 1.44820 3.84982
C 1.89080 2.49195 2.86466
C -.52707 2.98275 3.07152
C 1.24105 1.08502 -3.89199
C 1.76478 -.16873 -3.62780
C .83854 -1.29023 -3.55913
C 1.33913 -2.53364 -3.00325
C 2.65779 -2.60038 -2.48220
C .43732 -3.47311 -2.50957
C -.15951 1.29733 -4.03024
C -2.43835 .63682 -3.39907
C -1.09045 .26733 -3.83007
C -.58415 -1.07098 -3.62657
C -4.39142 .05782 -2.01124
C -3.32707 -.36848 -2.83349
C -2.87017 -1.73935 -2.71670
C -1.50956 -2.09144 -3.13018
C -.97283 -3.28242 -2.63671
C -2.68922 1.98772 -3.09076
C -1.57744 -3.97706 -1.52805
C -2.81761 -3.61983 -1.10268
C -3.53548 -2.58358 -1.80201
C -5.12217 .03129 .22260
C -4.93638 -.77855 -.97612
C -4.50964 -2.08384 -.87046
C -4.84585 -.50690 1.46285
C -3.57716 2.34238 -2.01549
C -4.69671 1.37954 -.08664
C -4.42984 1.40890 -1.50416
C -2.67441 2.12207 2.93106
C -4.15903 .29592 2.44031
C -3.73031 1.60573 2.14302
C -3.93055 2.14453 .80545
C -2.95743 3.10773 .25628
C -2.89192 3.25554 -1.12812
C .37018 1.11488 4.34567
C -3.29440 -.57901 3.18099
C -2.16059 -.10383 3.81899
C -1.99704 1.31983 3.85752
C -.68717 1.90814 4.04273
C -4.21429 -2.65008 .44247
C -4.34350 -1.86742 1.57091
C -3.30277 -1.88262 2.55969
C -2.11228 -2.60448 2.38761
C -.98188 -.95983 3.87437
C .22475 -.33908 4.31472
