96 

C -3.42715 -.93255 -2.53725
C -2.44586 -1.04472 -3.52333
C -4.72873 -.55510 -.03535
C -4.25446 -1.83448 -.34527
C -3.65879 -2.06775 -1.65774
C -3.86770 -2.65176 .74990
C -3.62049 -2.07087 2.01524
C -3.88351 -.71202 2.26820
C -4.64239 -.03056 1.28743
C -2.90987 -3.72076 .57615
C -2.40270 -3.98487 -.66353
C -2.84830 -3.21240 -1.81023
C -1.78673 -3.25425 -2.76067
C -1.63049 -2.21004 -3.64672
C -2.03010 -3.73516 1.72347
C -.64434 -4.03162 1.58690
C .17832 -3.57053 2.61044
C -2.98286 1.43262 3.00324
C -2.94729 .04636 3.10350
C -1.72100 -.58413 3.60628
C -1.55587 -2.01228 3.41691
C -2.47450 -2.73101 2.61019
C -.27580 -2.58004 3.53442
C 2.03435 -1.66640 -3.55950
C -.30109 -1.80521 -4.04106
C .83951 -2.41110 -3.48507
C -.60664 -3.84193 -2.12665
C 1.69016 -3.47692 -1.35558
C .68753 -3.38645 -2.39956
C 3.80488 -2.52388 -.42938
C 2.96681 -2.77038 -1.55245
C 3.12714 -1.91307 -2.64614
C -.07498 -4.22600 .24101
C -.97844 -4.27043 -.82760
C 1.59772 -3.39133 2.41564
C 2.18180 -3.55348 1.10984
C 1.30613 -3.88019 -.03313
C 3.39127 -2.91283 .89433
C 2.03499 -.30067 -3.89927
C .81315 .39972 -4.07236
C -.32701 -.39100 -4.25852
C -1.62978 .09359 -3.91125
C -.63842 2.22744 -3.22623
C -1.80883 1.34990 -3.36595
C 1.86115 2.38752 -2.97136
C .67205 1.74492 -3.54555
C 1.67968 3.50122 -2.15437
C .37634 3.97303 -1.82101
C -.77032 3.39008 -2.37463
C -1.98735 3.63337 -1.69223
C 3.17397 .31761 -3.25886
C 3.99743 1.97425 -1.72092
C 3.11334 1.63020 -2.79809
C 4.58851 -1.36352 -.31864
C 4.57848 -.38327 -1.35307
C 3.87923 -.69710 -2.53336
C 4.67507 .99003 -.98476
C -3.13257 2.75371 -1.84467
C -3.02177 1.55815 -2.56219
C -3.81048 .41832 -2.12669
C -3.92247 2.86316 -.66416
C -4.63752 1.75837 -.22005
C -4.60249 .55155 -.97541
C -3.19643 3.68837 .28147
C -4.62457 1.40989 1.18972
C -3.83964 2.13218 2.06459
C -3.11995 3.30559 1.60528
C .37946 4.40844 -.44986
C -.77408 4.33416 .32637
C -1.99878 4.15984 -.38265
C 1.67893 4.15686 .10678
C 1.83019 3.60179 1.37370
C .61396 3.34811 2.17103
C -.65854 3.81914 1.68434
C -1.83343 3.33012 2.28908
C 1.87959 1.66429 3.44944
C .63376 2.31638 3.16320
C 3.98168 2.60177 .55011
C 3.65373 3.03208 -.79401
C 2.53502 3.77204 -1.00680
C 3.08034 1.93980 2.68331
C 3.06256 2.84313 1.63038
C 4.63440 -.97343 1.09395
C 3.86309 .73959 2.63865
C 4.58952 .39794 1.47072
C 4.66778 1.38512 .43696
C 2.02994 -2.39147 3.28940
C 3.16560 -.24843 3.38819
C 3.18307 -1.59545 2.98937
C 3.92778 -1.94700 1.83162
C -1.78442 2.21356 3.16327
C -.57248 1.63368 3.54092
C -.56198 .21442 3.87906
C 1.93119 .35508 3.89271
C .72553 -.42204 4.07069
C .84660 -1.80100 3.91637
