96 

C .72503 -4.35803 -.72192
C 1.77290 -3.78230 -1.43674
C 2.96684 -3.50926 -.70245
C .72392 -4.36191 .71307
C 1.77069 -3.79052 1.43360
C 2.96594 -3.51337 .70344
C 1.45219 -2.98987 -2.61986
C 2.45160 -2.09021 -3.08676
C -.63414 -4.26154 -1.17855
C -.98563 -3.44989 -2.25566
C .08976 -2.75240 -2.98527
C -.23255 -1.55656 -3.73608
C -1.59650 -1.13755 -3.81366
C -1.47905 -4.38324 -.00681
C -2.73694 -3.84864 -.00645
C -3.21588 -3.15608 -1.17688
C -2.35865 -2.93922 -2.28645
C -2.65231 -1.82949 -3.09064
C 2.44766 -2.10786 3.09481
C 1.44872 -3.00471 2.62056
C -.98865 -3.46302 2.24835
C -.63603 -4.26812 1.16717
C .76202 -.57687 -4.02282
C 2.11620 -.91736 -3.76989
C 3.11283 .09594 -3.43492
C .40129 .83895 -4.06774
C 1.41211 1.80799 -3.80005
C 2.76864 1.41460 -3.43894
C -3.24958 .37575 -3.30093
C -1.94659 .20557 -3.92418
C -.94826 1.23361 -3.88383
C -3.54762 1.53764 -2.65122
C -2.55597 2.60725 -2.59681
C -1.25963 2.46743 -3.19042
C -4.10263 -2.13996 -.73156
C -4.27441 -.94786 -1.45445
C -3.64461 -.88667 -2.72566
C 2.11178 3.99951 -1.12248
C 3.24203 2.27638 -2.39208
C 2.28045 3.33834 -2.30412
C -.21044 3.27808 -2.67752
C 1.11589 2.99088 -3.11250
C .77024 4.36185 -.67830
C -.39024 3.98960 -1.41841
C 2.89466 3.62244 .02082
C 3.69643 2.46123 .01808
C 3.88165 1.75941 -1.24528
C 4.26242 .35314 -1.24864
C 3.96117 -.41310 -2.39564
C 3.66469 -1.81410 -2.30946
C 4.46440 -.34964 .01082
C 4.37506 -1.75789 .00677
C 3.89900 -2.47934 -1.14114
C 2.11029 3.99286 1.16501
C 3.88005 1.75229 1.27777
C 4.26130 .34616 1.27387
C 2.27718 3.32476 2.34305
C 3.23917 2.26256 2.42641
C -.39225 3.98079 1.45742
C .76935 4.35763 .72119
C 1.11153 2.97221 3.14766
C -.21417 3.26159 2.71239
C -1.61797 3.87368 .74477
C -2.72927 3.29359 -1.39460
C -1.61701 3.87804 -.70810
C -2.73116 3.28477 1.42608
C 3.89754 -2.48601 1.14975
C 3.66203 -1.82735 2.32153
C 3.95875 -.42668 2.41613
C 1.40732 1.78557 3.82856
C 2.76464 1.39489 3.46757
C 3.10899 .07638 3.45671
C .39617 .81487 4.08865
C .75682 -.60040 4.03598
C 2.11156 -.93888 3.78387
C -3.55109 1.52111 2.67061
C -2.55962 2.59105 2.62431
C -1.26405 2.44783 3.21889
C -3.25352 .35507 3.31310
C -1.95153 .18144 3.93748
C -.95333 1.21000 3.90510
C -3.83661 2.66779 -.67216
C -4.25966 1.49648 1.40522
C -3.83751 2.66343 .69810
C -4.10363 -2.14453 .72690
C -3.64751 -.90348 2.72926
C -4.27601 -.95683 1.45679
C -4.53974 .29158 .73461
C -4.53906 .29606 -.72482
C -4.25811 1.50486 -1.38716
C -.23735 -1.57867 3.74176
C .08568 -2.76976 2.98437
C -1.60146 -1.16081 3.81930
C -2.65618 -1.84850 3.09021
C -2.36180 -2.95306 2.27970
C -3.21769 -3.16332 1.16742
