96 

C 4.71155 .85319 -1.15654
C 4.83657 -.47606 -.87260
C 4.77489 -.94414 .50885
C 4.38362 -2.31337 .45962
C 3.62331 -2.84528 1.49351
C 3.95715 1.26890 -2.30359
C .82744 -.03186 -3.93306
C -.41265 .54037 -4.22201
C 1.94013 .86821 -3.64757
C 3.13661 .35877 -3.00258
C 3.23768 -1.05331 -2.67864
C 4.19677 -1.44634 -1.72224
C 4.04381 -2.63702 -.92562
C 2.57653 -3.81482 1.20550
C 2.29738 -4.16031 -.11316
C 3.00983 -3.49847 -1.19630
C 2.09689 -1.93662 -2.91925
C .86156 -1.42403 -3.47105
C 2.05424 -3.15561 -2.22245
C .90590 -1.62822 3.51120
C 1.85218 -2.46465 2.95801
C 1.48970 -3.57015 2.10114
C .94018 -4.31880 -.52141
C -.12212 -4.20373 .37873
C .15961 -3.77201 1.73307
C -2.18719 -3.18045 2.03696
C -.86255 -3.05650 2.47983
C -.51780 -1.95287 3.32584
C -1.51520 -.96193 3.61054
C -1.07053 .31732 4.09164
C -1.45179 -4.00092 -.17713
C -3.72823 -3.17070 .29084
C -2.49469 -3.73282 .71981
C -2.80765 -3.02330 -1.95342
C -1.59339 -3.58532 -1.55307
C -3.89461 -2.83518 -1.05228
C -1.64493 -.16132 -3.99383
C -1.64104 -1.48440 -3.53227
C -.36903 -2.12657 -3.23516
C -.39216 -3.25589 -2.32643
C .81197 -3.74843 -1.85917
C -2.82732 -1.93905 -2.91927
C .34337 .63356 4.22706
C 1.33176 -.26908 3.85625
C 2.60454 .24634 3.35425
C .48912 2.04096 4.01671
C 1.65544 2.52332 3.43795
C 2.74397 1.62606 3.19111
C 1.39306 3.83157 -1.83725
C 1.50413 3.97192 -.44966
C .34417 3.80481 1.78525
C 1.57762 3.45182 2.35572
C -3.17518 -2.22841 2.36405
C -2.83082 -1.04390 3.04823
C -3.57520 .17934 2.72822
C -2.96695 1.45869 3.01300
C -1.74824 1.48485 3.77302
C -.76556 2.56090 3.61006
C -2.10181 3.45381 1.81017
C -.85048 3.42929 2.50456
C .28189 4.04928 .33426
C 3.49237 -.62963 2.58501
C 3.16759 -1.98905 2.54169
C 3.49692 2.16974 2.07185
C 4.27883 1.34805 1.24458
C 4.34385 -.08442 1.54036
C 4.49499 1.80359 -.07776
C 2.76558 3.26287 1.54655
C 2.76125 3.54305 .17208
C 3.74251 2.88432 -.60702
C 2.37530 3.07754 -2.60970
C 3.50428 2.60206 -2.01111
C 1.67664 2.25217 -3.55737
C -1.06018 3.62484 -1.73654
C .13057 3.64182 -2.46986
C .33527 2.75929 -3.59738
C -2.19150 2.83986 -2.25617
C -1.98130 2.05632 -3.38807
C -.68172 1.93536 -3.99093
C -3.19666 2.54773 2.15956
C -2.15879 3.71324 .44984
C -.97617 3.94194 -.32982
C -4.82813 -1.09090 .97670
C -4.18234 -2.25548 1.32113
C -4.69480 1.21709 .78229
C -4.54902 .12683 1.70889
C -3.99484 2.39176 .99185
C -4.55130 -1.59078 -1.40938
C -4.81050 .69370 -.55216
C -5.00864 -.74209 -.42650
C -2.62345 .76592 -3.53193
C -3.32224 3.02979 -.09913
C -3.30968 2.47632 -1.37615
C -4.08319 1.25628 -1.61671
C -3.66878 .36120 -2.69290
C -3.86216 -1.03765 -2.55577
