96 

C .37261 3.32761 2.86663
C 1.45173 2.51908 3.20536
C 2.67826 2.78775 2.52926
C .39346 4.12553 1.67719
C 1.49026 4.09624 .81463
C 2.69520 3.55512 1.34698
C 1.17724 1.17494 3.70577
C 2.25222 .25795 3.67166
C 2.02645 -1.11496 3.53399
C -.98032 2.90504 3.11146
C -1.28191 1.58788 3.48022
C -.16736 .66647 3.74505
C -.39224 -.75668 3.66711
C .72655 -1.64644 3.49318
C -1.73791 -1.25894 3.38672
C -1.87084 -2.58614 2.96596
C -1.80520 3.63234 2.18775
C -2.60219 1.08250 3.14650
C -2.83531 -.34546 3.11296
C -3.03512 3.14656 1.84946
C -3.48940 1.91912 2.43093
C 2.30773 3.58537 -1.44881
C 1.23846 4.03489 -.62144
C -1.23046 4.09516 -.18011
C -.94750 4.22332 1.17837
C -.72677 -3.40837 2.65885
C .56823 -2.95349 2.85752
C 1.63717 -3.50947 2.02430
C -1.07190 -4.24466 1.53564
C -.09215 -4.61180 .64645
C 1.28179 -4.34736 .95501
C -2.36383 -3.85035 1.05144
C -.30556 -4.38882 -.76675
C -1.46744 -3.78578 -1.24313
C -2.58158 -3.58080 -.30751
C -3.92459 -2.11190 1.76180
C -2.92695 -2.99037 2.07433
C -4.36514 -1.98682 .38204
C -3.65555 -2.64588 -.64916
C -3.62643 -2.01340 -1.90785
C -3.94574 -.82111 2.38064
C 2.91688 -2.81277 1.93983
C 3.12243 -1.68825 2.75109
C 1.97474 -4.26274 -.31653
C 3.15530 -3.58263 -.41008
C 3.68180 -2.89229 .74678
C 2.54614 -1.46144 -3.36671
C 3.43300 -2.79237 -1.58404
C 2.44353 -2.61912 -2.58595
C .97502 -4.14459 -1.36795
C -2.46947 -2.16305 -2.79412
C -1.34980 -2.96335 -2.43898
C -.07167 -2.62811 -2.98279
C 1.13028 -3.25025 -2.42479
C .06197 -1.39902 -3.74809
C 1.36101 -.85430 -3.95207
C 4.40141 -1.76617 .27244
C 4.51480 -.59050 1.03552
C 3.98420 -.63738 2.35313
C 3.51726 .56013 3.00962
C 3.71105 1.77323 2.41614
C 4.45262 .75685 -1.10601
C 4.59989 .70026 .34425
C 4.29685 1.85362 1.08955
C 3.99347 1.95583 -1.68470
C 3.55501 3.05416 -.88447
C 3.73156 3.01505 .47597
C 4.25474 -1.70936 -1.17899
C 3.47620 -.43724 -3.05992
C 4.23416 -.48032 -1.86047
C 1.56842 .52342 -4.03675
C 2.90387 .79919 -3.53550
C 3.14944 1.95984 -2.86337
C .48745 1.43739 -3.84346
C .73947 2.65923 -3.09120
C 2.06511 2.91394 -2.65074
C -3.41625 -.09788 -3.16759
C -2.33047 -.99386 -3.53743
C -1.04115 -.51664 -3.91052
C -3.20311 1.24973 -3.15184
C -1.89899 1.77349 -3.52193
C -.82448 .91902 -3.93127
C -4.84786 -.65993 .20965
C -4.69333 .02466 -1.01413
C -4.17849 -.72976 -2.10384
C -4.37274 2.13016 .25624
C -4.44971 1.37953 1.50601
C -4.67633 .03333 1.48308
C -3.71921 2.05686 -2.05894
C -4.44994 1.47316 -.98911
C -.32797 3.29241 -2.38992
C -.10076 3.94314 -1.11539
C -1.65363 2.89694 -2.73607
C -2.77698 3.08076 -1.82573
C -2.57280 3.62404 -.54371
C -3.47261 3.21186 .46748
