96 

C -.58775 3.20523 -2.95373
C -1.70418 2.41253 -3.19793
C -2.86893 2.71514 -2.43223
C -3.91049 1.72269 -2.22194
C -3.79797 .50543 -2.81884
C -2.60456 .17051 -3.59305
C -1.49324 1.05970 -3.69693
C .72681 2.75266 -3.29773
C .97045 1.41469 -3.63052
C -4.41066 -1.76527 .03244
C -4.62071 -.61500 -.73404
C -4.23472 -.68064 -2.11540
C -3.46794 -1.74622 -2.60910
C -1.99694 -3.60129 -2.05428
C -3.19853 -2.88168 -1.80337
C -3.71482 -2.89943 -.49269
C 3.27686 1.74579 -2.82646
C 2.30247 .88266 -3.37617
C -.17134 .51928 -3.79713
C 1.34035 -1.45073 -3.32751
C .02964 -.92086 -3.68478
C -1.11504 -1.76513 -3.54581
C -2.42098 -1.19828 -3.49644
C -.97866 -3.06637 -2.98108
C -4.63548 .69395 -.06106
C -4.38489 1.83048 -.84985
C -4.10881 -1.67900 1.45096
C -4.09248 -.43961 2.12516
C -4.37756 .78088 1.37136
C -3.28506 -.37077 3.28035
C -3.18712 -2.70211 1.76981
C .66451 -4.21760 .94881
C -.64863 -3.92170 1.35498
C -.82897 -3.06489 2.49525
C -2.16698 -2.50133 2.72972
C -2.31944 -1.38257 3.55707
C -2.94435 -3.47533 .57481
C -1.34018 -4.28312 -1.02631
C -1.71310 -4.07733 .34853
C -2.72736 .88347 3.73029
C -2.97325 2.02588 3.02152
C -3.87739 1.99393 1.89131
C -3.47283 3.05996 1.03350
C -3.75340 2.99192 -.30747
C -1.39732 .63552 4.23733
C -.33588 1.54130 3.98695
C .95174 1.02452 4.11493
C 1.78259 -3.61188 1.55159
C 1.64592 -2.68989 2.59536
C .32228 -2.45167 3.11920
C .12459 -1.28178 3.97297
C -1.16769 -.75982 4.16645
C 1.18444 -.38006 4.15813
C -.49543 4.00246 -1.76619
C -2.77518 3.49341 -1.26217
C -1.51727 4.00119 -.82473
C -.54141 2.66884 3.08289
C -1.87311 2.93916 2.70816
C -2.17291 3.56735 1.48984
C 2.07559 1.65994 3.47543
C 1.89678 2.63029 2.48453
C .53400 3.13438 2.23969
C .22697 3.76586 .98549
C -1.15277 3.93735 .59086
C 1.27650 3.88324 -.03855
C .88466 4.06368 -1.36871
C 1.63371 3.48225 -2.44941
C 2.88450 2.99814 -2.22429
C 3.44924 3.09191 -.90379
C 4.06525 1.91472 1.54145
C 2.94014 2.76574 1.47533
C 2.62530 3.38628 .20496
C 5.06942 .08925 .45224
C 4.79598 1.51890 .36498
C 4.48013 2.09066 -.84605
C 4.97407 -.69671 -.67811
C 3.09485 .65350 3.36701
C 4.52361 -.38650 1.70628
C 4.07789 .77772 2.42528
C 2.83483 -3.47606 .54207
C 4.35641 -1.99426 -.58423
C 3.81912 -2.46489 .63194
C 3.82456 -1.60267 1.80385
C 2.74209 -1.72086 2.79012
C 2.49529 -.62920 3.61473
C .05115 -4.38164 -1.40980
C 3.63368 -2.21351 -1.80438
C 2.55346 -3.08064 -1.86018
C 2.31568 -3.88114 -.69682
C 1.01012 -4.45632 -.44890
C 4.36852 1.25563 -2.03839
C 4.57113 -.10434 -1.94358
C 3.64694 -.99878 -2.58252
C 2.48582 -.54596 -3.22796
C 1.43871 -2.74808 -2.73835
C .26129 -3.53644 -2.58482
