96 

C 2.90793 -2.99723 -1.99360
C 1.71598 -2.91010 -2.75106
C .62911 -3.66948 -2.28424
C -.71513 -3.33415 -2.62951
C .08735 -1.28163 -3.70403
C -1.01876 -2.14704 -3.28763
C 3.95384 -2.00194 -2.10529
C 3.76065 -.90678 -2.91870
C 2.48163 -.73286 -3.59235
C 1.43422 -1.70583 -3.50766
C -.17368 .13790 -3.89792
C -1.49464 .58074 -3.87096
C -2.59822 -.29590 -3.53899
C -2.37295 -1.60748 -3.11895
C -3.28626 -2.18258 -2.13987
C -3.63220 .51658 -2.98123
C -4.46254 -.00514 -2.01270
C -4.32394 -1.37568 -1.63350
C -3.13192 1.87266 -2.85867
C -3.42705 2.66024 -1.73794
C -2.48452 3.68501 -1.40970
C 2.19034 .63385 -3.58737
C .86113 1.11156 -3.64584
C .56014 2.38414 -3.06660
C -.82065 2.77996 -2.99004
C -1.82203 1.90018 -3.45277
C -1.23204 3.75845 -2.03994
C -2.83177 -3.29327 -1.30928
C -1.57416 -3.86090 -1.58365
C -4.72432 -1.45890 -.24003
C -4.22217 -2.44198 .56455
C -3.31036 -3.42444 .01285
C -4.87206 -.11461 .27918
C -4.34769 .22502 1.54705
C -3.95713 1.56634 1.73747
C -4.23484 2.08058 -.65719
C -4.75986 .78538 -.82230
C -3.97283 2.49806 .68053
C -2.80346 -3.10023 2.25446
C -2.44121 -3.84540 1.06348
C -1.09726 -4.19514 .80655
C -.74626 -4.34950 -.55082
C -1.82602 -2.77664 3.16015
C -3.72591 -.80646 2.37313
C -3.80545 -2.13641 1.91924
C -1.79576 -1.46216 3.72633
C -2.64636 -.44666 3.28879
C -.45876 -3.21579 2.95162
C -.04632 -3.82727 1.76727
C 1.33662 -3.62056 1.31693
C 1.65814 -3.92902 -.07119
C .62603 -4.23310 -.97974
C 2.84913 -3.43256 -.63507
C .38452 -2.28205 3.62393
C 2.29378 -.85587 3.63621
C 1.71045 -2.08044 3.22531
C 2.22127 -2.76950 2.05388
C 3.45569 -2.25194 1.43433
C 3.77710 -2.66182 .14351
C -2.86396 1.91133 2.64794
C -2.13899 .93469 3.33808
C -.76458 1.21884 3.67777
C .07708 .10848 4.11521
C -.42768 -1.19166 4.08813
C 1.48501 .22344 4.04907
C 3.45952 -.32081 2.97902
C 4.05501 -.99266 1.90337
C 4.79677 -.18993 .98529
C 5.01715 -.61719 -.37872
C 4.54171 -1.83741 -.77998
C 3.36863 1.10157 3.01853
C 3.17610 3.05423 1.59859
C 3.89117 1.87663 1.96475
C 4.64406 1.21410 .96603
C -2.25429 3.09324 2.18488
C -.88413 3.33609 2.37617
C -.13188 2.42221 3.19445
C 1.96730 3.39048 2.22992
C 1.33986 2.51551 3.17178
C 2.10987 1.44437 3.62513
C -.90242 4.46334 .14095
C -2.29822 4.12941 -.03416
C -2.97107 3.50944 .98009
C 1.17283 4.12880 1.28195
C -.20753 4.15714 1.35926
C 3.22011 1.34145 -2.85814
C 2.88030 2.45786 -2.04727
C 1.56418 3.03677 -2.19162
C 1.85693 4.10423 .01031
C 1.11049 3.94709 -1.18757
C -.26927 4.28604 -1.09752
C 4.58951 1.65770 -.43517
C 4.86866 .54726 -1.24658
C 4.20644 .40702 -2.48360
C 3.08183 3.44939 .19415
C 3.64205 2.65360 -.83508
