96 

C 3.04784 -1.61681 -2.76410
C 3.04074 -.29595 -3.19564
C 2.62774 -3.82448 -1.01378
C 3.71567 -3.03294 -.81776
C 3.99913 -1.95953 -1.74493
C 3.10491 -1.91374 2.63433
C 4.05692 -2.59541 .52217
C 3.15962 -2.85976 1.61228
C 1.98873 -3.71258 1.38522
C .78100 -3.52757 2.19889
C 1.84957 -4.29803 .11870
C -.41374 -4.09496 1.75444
C 4.68695 -.96874 -1.03018
C 4.59642 .40269 -1.41075
C 3.82534 .71338 -2.55113
C 4.70082 1.39517 -.39226
C 4.70849 -1.35916 .39384
C 3.82873 -.68252 2.55244
C 4.59838 -.36733 1.41226
C 4.68137 1.00465 1.03179
C 3.69875 3.06323 .81921
C 4.04261 2.62762 -.52079
C 3.14407 2.88684 -1.61118
C 3.09471 1.94050 -2.63323
C 2.60662 3.84850 1.01520
C 3.03869 .32237 3.19708
C 3.03866 1.64327 2.76571
C 3.98808 1.99141 1.74650
C 1.82612 4.31784 -.11733
C 1.96857 3.73321 -1.38403
C .76199 3.54182 -2.19760
C .66765 2.41520 -3.10798
C 1.85596 1.67638 -3.35236
C -.58569 1.79264 -3.39016
C -.59901 .38513 -3.75600
C -1.82474 -.32306 -3.67573
C .53402 4.65405 .40672
C -.56125 4.65004 -.41992
C -.43566 4.10296 -1.75277
C -1.70873 3.56199 -2.12661
C -1.81739 2.40754 -2.89945
C 1.80168 2.42579 2.89353
C 1.68695 3.57704 2.11685
C .41127 4.11007 1.74120
C .59662 -.38672 -3.75484
C 1.82235 .32187 -3.67745
C -1.85834 -1.67644 -3.34599
C -.67005 -2.41447 -3.09940
C .58328 -1.79292 -3.38410
C 1.81507 -2.40611 -2.89179
C 1.70647 -3.55800 -2.11522
C -1.97094 -3.72711 -1.37128
C -.76431 -3.53810 -2.18553
C .43347 -4.09781 -1.73940
C -1.82864 -4.30808 -.10306
C -.53635 -4.64270 .42166
C .55905 -4.64097 -.40505
C -3.09700 -1.93801 -2.62583
C -4.04516 -2.61842 -.51157
C -3.14651 -2.88120 -1.60095
C -4.68933 .97666 -1.03257
C -4.59886 -.39605 -1.40863
C -3.82757 -.71052 -2.54780
C -4.70351 -1.38539 -.38709
C -3.04305 .29655 -3.19572
C -3.05026 1.61876 -2.76871
C -4.00150 1.96493 -1.75055
C -3.99093 -1.97549 1.75345
C -3.70157 -3.05011 .82959
C -2.60944 -3.83508 1.02792
C -3.04161 -.30234 3.19878
C -3.04166 -1.62458 2.77155
C -4.71094 1.37141 .39021
C -3.83150 .70093 2.55101
C -4.60114 .38259 1.41175
C -4.68424 -.99058 1.03564
C -2.62986 3.83163 -1.02559
C -3.10743 1.93213 2.62893
C -3.16185 2.87509 1.60387
C -4.05928 2.60784 .51461
C -3.71799 3.04108 -.82677
C 1.82383 -.30226 3.67898
C .59437 .39970 3.75676
C .57344 1.80589 3.38612
C -1.86744 1.67663 3.34889
C -.68310 2.42085 3.10177
C -.78333 3.54400 2.18777
C -1.99085 3.72678 1.37373
C -1.85160 4.30835 .10531
C -1.68970 -3.56067 2.12866
C -1.80463 -2.40698 2.90176
C -.57614 -1.78577 3.39206
C .68052 -2.40156 3.10934
C 1.86485 -1.65649 3.35366
C -1.82656 .32342 3.67852
C -.59709 -.37843 3.75818
