96 

C 2.15405 1.40319 -3.57831
C .94674 .72982 -3.89337
C .94349 -.73491 -3.89157
C 3.35714 .67687 -3.18203
C 3.35414 -.69209 -3.18039
C 2.14777 -1.41339 -3.57472
C 4.00136 1.38892 -2.12445
C 3.99528 -1.40496 -2.12145
C 4.48150 -.73771 -.98065
C 4.48471 .72186 -.98219
C 4.43656 .72338 1.49409
C 4.44128 1.44926 .28978
C 3.85117 2.73769 .33171
C -.27927 -1.44218 -3.71630
C -1.48469 -.69248 -3.86324
C 2.12704 -2.63459 -2.89009
C .90159 -3.25349 -2.51603
C -.32578 -2.69209 -2.99220
C -1.59722 -3.11567 -2.38444
C -1.54675 -3.97471 -1.28774
C 3.31624 -2.68297 -2.03461
C 3.27274 -3.35344 -.84542
C 2.06447 -4.05811 -.46366
C .91262 -4.07012 -1.31178
C -.29941 -4.35698 -.69551
C 3.83920 -2.74829 .33752
C 4.43343 -.73416 1.49565
C 4.43503 -1.46241 .29287
C -2.81329 -2.30605 -2.54742
C -2.74567 -1.14541 -3.31344
C -2.50967 -3.89200 -.20245
C -3.62235 -3.12126 -.32621
C -3.83123 -2.35457 -1.53635
C -3.44880 -1.13950 2.78670
C -4.08314 -2.34589 .80559
C -3.31077 -2.28985 2.01509
C 1.92407 -3.93921 .92771
C .63944 -3.90356 1.54240
C -.43349 -4.30049 .74055
C -1.77468 -3.93124 1.05482
C -.94835 -2.61114 2.95316
C -2.06061 -3.06876 2.10971
C -4.56218 -1.21110 -1.17661
C -4.40059 .01300 -1.89042
C -3.53082 .00951 -3.00063
C -4.55644 1.23934 -1.17909
C -4.72390 -1.20894 .28965
C -4.13917 .01621 2.29728
C -4.72845 .01660 1.01767
C -4.71816 1.24075 .28727
C -3.82020 2.37835 -1.54131
C -2.80294 2.32253 -2.55270
C -2.74062 1.15991 -3.31625
C -1.48172 .69958 -3.86501
C -.31366 2.69528 -2.99861
C -.27275 1.44354 -3.71984
C -3.60777 3.14629 -.33257
C -2.49146 3.91138 -.21045
C -1.52843 3.98693 -1.29615
C -1.58314 3.12622 -2.39152
C .91631 3.25152 -2.52350
C 2.13889 2.62586 -2.89611
C -3.44337 1.16934 2.78457
C -3.29995 2.31763 2.01075
C -4.07218 2.37536 .80101
C -.27931 4.36409 -.70459
C .93105 4.07012 -1.32052
C 2.08251 4.05393 -.47218
C 3.28749 3.34292 -.85252
C 3.32815 2.67015 -2.04039
C -.41353 4.31117 .73175
C .40991 3.03738 2.66903
C .65719 3.91051 1.53451
C 1.94171 3.93855 .91950
C 1.27609 1.17889 4.02676
C 1.54498 2.27726 3.21195
C -2.36924 .71371 3.63920
C -.06084 .73056 4.24453
C -1.15447 1.44720 3.76359
C -.93625 2.62878 2.94814
C -2.04615 3.09048 2.10371
C -1.75633 3.94928 1.04690
C 1.53463 -2.27127 3.21658
C .39603 -3.02681 2.67483
C 1.27073 -1.17004 4.02902
C -.06411 -.71490 4.24592
C -1.16112 -1.42703 3.76626
C -2.37243 -.68783 3.64045
C 3.30958 -.00100 3.36948
C 3.69992 -1.17579 2.62748
C 2.84391 -2.30436 2.54742
C 3.02123 -3.13342 1.43060
C 2.12593 .00245 4.04904
C 3.03507 3.12874 1.42412
C 2.85422 2.30287 2.54262
C 3.70521 1.17053 2.62501
