96 

C 2.57015 2.61412 2.62372
C 3.28873 1.42514 2.62328
C 4.34280 1.29625 1.62858
C 4.81951 -.01130 1.21145
C 4.35262 -1.12385 1.83295
C 3.30285 -1.01531 2.84817
C 2.65990 .24103 3.15128
C 1.25730 2.66756 3.15157
C .55826 1.49899 3.51704
C 3.40374 -3.27566 -1.02975
C 4.23919 -2.37353 -.34885
C 4.13974 -2.35344 1.08505
C 3.13362 -3.05417 1.75352
C .96331 -4.14518 1.60213
C 2.26297 -3.93421 1.05301
C 2.41351 -4.04857 -.33758
C -1.52728 2.74154 3.00494
C -.90092 1.52237 3.45345
C 1.27204 .24917 3.51418
C -.92580 -.96202 3.46557
C .50821 -.99689 3.51493
C 1.20213 -2.22765 3.18930
C 2.59547 -2.19327 2.83097
C .48386 -3.33741 2.73186
C 4.65939 -1.14249 -1.03292
C 5.00593 .00061 -.23604
C 2.85074 -2.94634 -2.33013
C 3.21380 -1.77826 -2.95035
C 4.17588 -.88994 -2.32730
C 1.47944 -3.37110 -2.36910
C -1.91211 -1.86576 -2.93970
C -3.20476 -1.98192 -2.41518
C -.89768 -2.78219 -2.47305
C .46952 -2.58246 -2.93000
C .85098 -1.32647 -3.55804
C 2.20675 -.98533 -3.59540
C -.13271 -4.42149 .78133
C -.04117 -4.23005 -.63899
C 1.23653 -4.13373 -1.17696
C -2.43361 -3.50533 -.64973
C -1.15900 -3.61444 -1.34244
C -3.45616 -2.77870 -1.25106
C 3.85289 .44380 -2.74657
C 4.11634 1.55043 -1.92465
C 4.74524 1.30750 -.66417
C 3.24479 2.68446 -2.03725
C 2.63350 .38434 -3.52113
C .29285 1.10217 -3.59400
C 1.70152 1.41440 -3.47582
C 2.08943 2.62600 -2.81985
C -2.00041 1.79230 -3.22612
C -.66358 2.11423 -3.18901
C -1.52038 -.58990 -3.52991
C -.12673 -.25953 -3.68256
C -2.44199 .46342 -3.50211
C 2.97103 3.55938 -.88933
C 3.47299 3.24182 .39132
C 4.37556 2.12146 .51234
C 2.67430 3.56272 1.51087
C -.25893 3.23777 -2.33040
C 1.08980 3.49119 -2.21679
C 1.65858 4.07056 -1.03266
C -1.16076 3.71077 -1.27361
C .83841 4.36126 .07589
C 1.42126 4.20208 1.36187
C -2.97878 2.43971 -2.36096
C -2.54753 3.25868 -1.28821
C -.60707 4.23869 -.07870
C -1.39118 4.17361 1.13323
C -.74855 3.79203 2.38476
C .59851 3.77386 2.48360
C -5.08632 .24096 .92972
C -4.51864 1.47640 1.28912
C -3.54605 1.55963 2.32174
C -2.74174 2.72602 2.33970
C -4.69499 -.91724 1.61975
C -2.64451 3.59167 1.14770
C -3.29210 3.19831 -.06642
C -4.36061 2.27986 .05968
C -4.08417 1.56450 -2.24055
C -5.24871 .20964 -.51702
C -4.79323 1.49699 -1.03017
C -4.48805 -2.15550 .88683
C -4.53804 -2.15106 -.49122
C -4.94792 -.95147 -1.20793
C -4.14968 -.88552 -2.42509
C -3.76183 .32899 -2.94484
C -1.32332 -4.00476 1.48456
C -3.42022 -2.87238 1.54625
C -2.48604 -3.65743 .80968
C -3.03260 .36950 2.93259
C -1.64290 .32352 3.40448
C -3.69728 -.83797 2.62030
C -2.97335 -2.08627 2.62882
C -1.63607 -2.15886 3.08628
C -.91999 -3.29579 2.66195
