96 

C 4.33555 -1.92178 -1.06480
C 3.43290 -2.44070 -2.03975
C 2.96043 -1.56005 -3.04551
C 2.58995 -3.50182 -1.65156
C 2.49503 -3.87980 -.26659
C 3.19536 -3.19353 .71978
C 4.25884 -2.33624 .27427
C 1.29951 -3.67511 -2.23745
C .76553 -2.70502 -3.10212
C 1.65233 -1.69310 -3.54787
C 1.16342 -.37275 -3.82805
C -1.13564 -1.14071 -3.49644
C -.16885 -.06085 -3.77154
C -1.53706 -3.28017 -2.27940
C -.67071 -2.42609 -3.08609
C -2.86110 -2.88877 -2.07414
C -3.35193 -1.64625 -2.56801
C -2.50663 -.76726 -3.24558
C -2.85729 .62390 -3.21569
C .45272 -4.31318 -1.25076
C -1.61976 -4.37868 -.05884
C -.94591 -4.16946 -1.28160
C 3.01311 -1.80215 2.73103
C 2.50114 -2.86555 1.97589
C 1.11613 -3.23586 2.17133
C .48977 -4.12356 1.19023
C 1.15926 -4.37238 -.03160
C -.90207 -4.26292 1.16745
C 2.19971 .58049 -3.46440
C -1.84325 1.65534 -3.34936
C -.51594 1.35518 -3.53344
C .50494 2.31565 -3.05209
C 1.87046 1.89442 -2.97374
C .08067 3.47113 -2.31016
C 1.02727 4.12691 -1.49469
C -2.28032 2.80259 -2.58745
C -1.33406 3.67859 -2.00229
C -1.70021 4.29581 -.79001
C -.68175 4.64791 .17743
C .63452 4.65910 -.19064
C -3.48611 2.46616 -1.95386
C -4.43511 2.02694 .26403
C -3.73997 2.90957 -.62255
C -2.82751 3.81570 -.05306
C -4.36283 -1.15203 -1.64876
C -4.56576 .22430 -1.48576
C -3.85496 1.10882 -2.37136
C -4.89395 .69925 -.18096
C 2.35210 3.65884 -1.37743
C 2.79721 2.52111 -2.07913
C 3.92610 1.75779 -1.52299
C 2.77912 3.90512 -.00773
C 3.73552 3.12081 .55332
C 4.42719 2.13103 -.25136
C 1.63027 4.29547 .76648
C 4.14950 .40746 -1.96349
C 3.28726 -.13131 -2.99217
C 4.93670 1.16159 .65767
C 5.11550 -.15095 .23295
C 4.76650 -.51556 -1.09483
C 4.35719 1.42264 1.97490
C 4.76404 -1.25884 1.10575
C 4.16510 -1.01086 2.31866
C 3.93677 .35910 2.75369
C 3.52862 2.58567 1.88121
C 2.25116 2.64870 2.48004
C 1.27789 3.57823 1.93059
C -1.05613 4.10955 1.45261
C -.12769 3.43023 2.25300
C -2.00221 1.95938 3.01920
C -.59813 2.27996 3.03071
C .35491 1.28879 3.45371
C 1.78738 1.50801 3.23812
C 2.65287 .41690 3.38582
C -2.41126 .69418 3.49475
C -1.46841 -.29381 3.79953
C -.09589 -.04257 3.74521
C -4.39253 .60160 2.06344
C -4.07229 1.94209 1.61098
C -2.92179 2.64731 2.11538
C -2.42238 3.67170 1.32757
C -3.60569 .01092 3.00672
C -4.43269 -2.05058 -.53664
C -4.55115 -1.55693 .77697
C -4.86899 -.16930 .92109
C -3.01409 -3.34646 1.52167
C -2.94668 -3.85854 .16455
C -3.58105 -3.18308 -.84578
C -3.31143 -1.41247 2.92464
C -3.77900 -2.20662 1.83977
C 2.13790 -.93881 3.43998
C .78244 -1.19412 3.54058
C .27490 -2.43918 3.01448
C -2.01907 -1.60125 3.45496
C -1.17455 -2.63745 2.99834
C -1.74126 -3.57213 2.12032
