96 

C -3.11674 -1.57322 2.40194
C -4.19584 -1.41603 1.52936
C -4.86246 -.15046 1.35809
C -2.66674 -.41616 3.17797
C -3.32684 .79071 3.00088
C -4.41389 .94399 2.07363
C -.60794 -1.56800 3.75151
C -1.29277 -.37727 3.71024
C -.52454 .87697 3.74878
C -1.21562 2.08798 3.37810
C -2.58456 2.04238 3.02235
C -.47612 3.17279 2.87997
C .81689 -1.61860 3.85931
C 2.91180 -.55068 3.37438
C 1.58809 -.42963 3.82110
C .90580 .84942 3.71315
C 1.65160 1.98455 3.15983
C .94318 3.11140 2.77517
C -5.00853 1.20662 -.67936
C -4.46782 2.32860 .05980
C -5.23399 -.01036 -.03432
C -4.25432 2.22442 1.41978
C -3.10215 2.87870 2.00839
C -2.21510 3.66477 1.21833
C -.96542 3.92923 1.77466
C -4.43156 -1.23870 -1.99993
C -4.12508 .02511 -2.63887
C -4.88880 -1.25325 -.69541
C -4.37519 1.21116 -1.98202
C -3.37137 2.24906 -2.00803
C .26202 2.67954 -2.87860
C 1.36032 3.40189 -2.41195
C -1.03930 2.91992 -2.26383
C -2.14751 2.09161 -2.67238
C -1.89944 .84374 -3.38829
C -2.89383 -.13369 -3.36938
C -2.33040 3.60116 -.24414
C -3.44991 2.96887 -.77326
C .16452 4.30891 .95511
C .08189 4.20978 -.46122
C -1.13607 3.69259 -1.06873
C 1.28849 4.10114 -1.15148
C -1.66789 -3.71923 -1.85064
C -2.89579 -3.12919 -1.49582
C -3.42446 -2.18896 -2.40405
C -2.54103 -1.52971 -3.31749
C -.18330 -.95377 -3.70139
C -1.21596 -1.94164 -3.46365
C -.86439 -3.17861 -2.87270
C 2.17584 -.38814 -3.60284
C 1.19959 -1.35864 -3.52053
C .51272 1.42145 -3.57302
C -.52766 .43192 -3.67112
C 1.84051 .99530 -3.72207
C -3.21680 -3.01037 -.07761
C -4.22846 -2.11660 .27626
C -.80057 -4.33114 -.85829
C -1.00610 -4.10324 .51565
C -2.21583 -3.37077 .92503
C -2.20741 -2.67065 2.15620
C -1.04525 -2.73659 2.99547
C .51195 -4.34138 -1.40946
C 1.61945 -4.33597 -.57500
C 1.43837 -4.30481 .83088
C .15106 -4.13965 1.38277
C .07641 -3.46642 2.65412
C 1.54527 -2.60698 -2.82729
C .51626 -3.50669 -2.57598
C 2.76148 -3.53674 -.90893
C 2.74274 -2.65359 -1.98607
C 2.61533 -3.63053 1.39805
C 2.51154 -2.86187 2.60218
C 1.24957 -2.80549 3.23619
C 3.36941 -1.75331 2.74960
C 3.41720 -3.18049 .34331
C 4.21711 -2.00122 .44579
C 4.29711 -1.39220 1.70577
C 3.95136 .82973 -2.71836
C 3.45207 -.49814 -2.89972
C 3.66681 -1.51105 -1.96366
C 4.66074 1.14057 -1.56676
C 4.90766 .11631 -.59676
C 4.42679 -1.19670 -.75947
C 3.44615 3.26494 -1.36271
C 2.71750 2.94745 -2.57771
C 2.95778 1.75715 -3.23193
C 4.37582 2.38070 -.85826
C 1.33661 3.90649 1.61978
C 2.53106 3.63687 .91608
C 2.53491 3.93119 -.46292
C 4.53539 .02624 1.81985
C 3.60998 .56615 2.76828
C 2.98780 1.79487 2.56845
C 4.88625 .75646 .71016
C 4.40081 2.09617 .56502
C 3.42545 2.61368 1.43890
