96 

C -2.10228 3.69643 -1.72460
C -.87034 3.51665 -2.39966
C .27094 3.98936 -1.73636
C 1.57738 3.47353 -2.03031
C .55920 1.77946 -3.47943
C 1.75131 2.36795 -2.84603
C -3.28086 2.93137 -2.07487
C -3.18638 1.95237 -3.04135
C -1.88789 1.65248 -3.63302
C -.71410 2.40180 -3.31840
C .60218 .38842 -3.87251
C 1.83852 -.28891 -3.82488
C 3.04284 .33227 -3.29166
C 2.98176 1.57958 -2.66892
C 3.86572 1.82963 -1.54069
C 3.90102 -.71106 -2.83394
C 4.69348 -.50017 -1.71215
C 4.70277 .78579 -1.09517
C 3.19958 -1.96868 -3.01159
C 4.72030 -1.50784 -.65650
C 4.00386 -2.67362 -.80677
C 3.28769 -2.94428 -2.04131
C -1.82037 .26950 -3.83958
C -.58388 -.40825 -3.87582
C .72906 -2.41952 -3.30576
C 1.90512 -1.67099 -3.61372
C 3.50783 2.86552 -.57502
C 2.39771 3.68184 -.85157
C 4.90782 .56189 .33094
C 4.50466 1.49476 1.23975
C 3.85648 2.71151 .78563
C 4.70770 -.83978 .61340
C 3.07822 2.17368 2.90097
C 2.97037 3.13251 1.81770
C 1.73325 3.74450 1.51677
C 1.55462 4.15098 .18100
C 1.99637 1.93934 3.70149
C .32092 .59169 4.47770
C 1.71805 .60213 4.13374
C -.36054 -.58525 4.47716
C 3.20311 -3.15556 .28541
C 3.04983 -2.44621 1.47950
C 3.86424 -1.25225 1.66764
C 3.47218 -.25851 2.65580
C 3.89567 1.07456 2.47350
C 1.82044 -2.64686 2.26276
C 1.54094 -1.72805 3.34264
C 2.32975 -.50522 3.51058
C .27410 -1.77490 3.94138
C .72940 2.61668 3.44529
C .54249 3.42082 2.32039
C -.78788 3.48321 1.73851
C -.91867 4.06854 .40571
C .23199 4.33740 -.36144
C -2.10686 3.88188 -.31357
C -.30984 1.77976 3.93348
C -2.36211 .50888 3.49156
C -1.57218 1.73116 3.32543
C -1.84398 2.64682 2.24068
C -3.92058 -1.07359 2.44773
C -3.49826 .25991 2.62900
C -3.88325 1.25062 1.63481
C -3.06766 2.44392 1.44890
C -3.21268 3.14979 .25167
C -1.75517 -.59654 4.12278
C -4.00577 2.66444 -.84471
C -4.72339 1.49899 -.69602
C -4.71945 .83491 .57591
C -3.86972 -2.71590 .76550
C -4.52093 -1.49752 1.21096
C -4.91777 -.56763 .29642
C -2.39962 -3.69195 -.85756
C -3.51181 -2.87450 -.59200
C -2.03058 -1.93495 3.69264
C -1.56368 -4.15734 .18262
C -1.75178 -3.74656 1.51565
C -2.99110 -3.13363 1.80539
C -3.10664 -2.17141 2.88475
C 2.10128 -3.88905 -.28584
C -.23718 -4.34513 -.34952
C .90792 -4.07361 .42511
C .76777 -3.48454 1.75516
C -.56682 -3.42048 2.32697
C -.76180 -2.61314 3.44805
C -1.73987 -2.38467 -2.85182
C -.54342 -1.79802 -3.47822
C -1.57121 -3.48739 -2.03107
C -.26669 -4.00173 -1.72590
C .87934 -3.53089 -2.38223
C 2.10657 -3.70784 -1.69742
C -4.70286 -.79614 -1.12739
C -4.68955 .48790 -1.74823
C -3.88947 .69514 -2.86492
C -3.86317 -1.84169 -1.56355
C -2.97161 -1.59544 -2.68627
C -3.02847 -.34996 -3.31322
