96 

C 1.50368 -4.25028 -.32362
C 2.61420 -3.44180 -.57454
C 2.71944 -2.78809 -1.86525
C .46669 -4.43472 -1.29161
C .56186 -3.79409 -2.51073
C 1.69035 -2.96739 -2.79054
C -2.76726 -2.18092 -2.73887
C -.61570 -3.17910 -3.07856
C -1.84887 -3.20389 -2.40584
C -1.94843 -3.82299 -1.08456
C -2.92676 -3.30055 -.12136
C -.81202 -4.49415 -.60211
C -2.66897 -3.47753 1.23740
C 3.55391 -1.60303 -2.01266
C 4.47117 -1.32688 -.99120
C 5.01372 -.02157 -.80105
C 3.12383 -.52523 -2.88275
C 3.68006 .74094 -2.68901
C 4.61410 1.00906 -1.64563
C 1.22062 -1.85433 -3.60035
C 1.82142 -.61090 -3.55683
C .98519 .57702 -3.74389
C 1.55826 1.85948 -3.39725
C 2.87217 1.93335 -2.88410
C .70258 2.92525 -3.07835
C -.19164 -1.99762 -3.77306
C -2.37371 -1.05616 -3.48876
C -1.02013 -.87432 -3.87309
C -.43848 .45048 -3.83586
C -1.31153 1.57677 -3.46931
C -.71767 2.77881 -3.13029
C 4.78600 1.44946 1.14774
C 4.31725 2.50415 .26845
C 5.15493 .21574 .62399
C 4.30081 2.31420 -1.09810
C 3.21014 2.86635 -1.87472
C 2.19455 3.65488 -1.27048
C 1.01372 3.80224 -2.00246
C 4.06959 -.93786 2.51768
C 3.65713 .35562 3.03594
C 4.75490 -1.00479 1.30596
C 3.97409 1.50628 2.35150
C 2.95631 2.52261 2.17450
C -.75833 2.94636 2.57200
C -1.80538 3.59380 1.90867
C .60377 3.15950 2.09269
C 1.66375 2.39384 2.69809
C 1.34487 1.19171 3.46821
C 2.33818 .21210 3.60479
C 2.12069 3.70897 .19458
C 3.17938 3.15683 .91276
C -.22473 4.19215 -1.36855
C -.31517 4.23813 .04961
C .83150 3.82648 .85073
C -1.59433 4.15225 .59368
C 3.31349 -2.87646 .57629
C 2.66127 -2.85980 1.86858
C 4.33091 -1.95047 .32429
C 3.02793 -1.86991 2.78912
C .37351 -2.87791 2.93366
C 1.34495 -3.46999 2.02362
C .88409 -4.29069 .99309
C -.96561 -3.22790 2.79461
C -1.42746 -4.02616 1.70158
C -.51539 -4.53626 .80121
C 1.99615 -1.16960 3.54986
C -.35196 -.59272 3.76800
C .67910 -1.58829 3.56453
C -2.73482 -.04610 3.50926
C -1.73644 -1.01031 3.63748
C -2.02766 -2.30214 3.13409
C -1.07029 1.77111 3.36829
C -.02428 .79414 3.65347
C -2.40334 1.35782 3.44900
C -4.36720 1.00138 2.23788
C -3.89468 -.28024 2.70280
C -3.96157 -1.43124 1.88962
C -3.08461 -2.48669 2.21930
C -4.88430 1.10473 .96203
C -3.73423 3.25201 .63764
C -3.15849 3.12143 1.96269
C -3.45894 2.01699 2.73742
C -4.54868 2.25589 .13762
C -1.28662 3.65902 -2.12117
C -2.54638 3.39771 -1.53912
C -2.73756 3.85025 -.21769
C -4.18668 -.43764 -2.18170
C -3.20796 .06342 -3.10204
C -2.69481 1.35057 -2.99939
C -4.74067 .40191 -1.24402
C -4.36046 1.78816 -1.22312
C -3.31357 2.26353 -2.03256
C -4.41485 -1.31413 .50859
C -3.85795 -2.21844 -.50540
C -3.82706 -1.77840 -1.82818
C -4.92269 -.06617 .10332
