96 

C -.09791 3.92775 1.12229
C -1.29020 4.11751 .42392
C 2.34560 3.08741 2.28547
C 1.14243 2.76423 2.93360
C -.13428 3.20115 2.36406
C 1.17457 1.63358 3.77636
C 2.21520 .68082 3.67504
C 3.33741 .90792 2.86164
C 3.46684 2.20553 2.31169
C -.03874 .93957 4.10675
C -1.28465 1.40821 3.67950
C -1.35866 2.56253 2.77718
C -2.56775 2.75065 2.00993
C -2.51940 3.60206 .89111
C -2.32676 .45210 3.67210
C .24924 -.45783 4.15257
C -.32388 -2.58231 3.05206
C -.71889 -1.40634 3.80828
C -2.05037 -.93160 3.74033
C -.97148 -4.19972 1.32887
C -1.36269 -3.30628 2.33024
C 2.05079 -1.71689 3.05552
C 1.62582 -.63800 3.81027
C 2.64638 -3.52373 .94599
C 1.40127 -3.67623 1.64383
C 1.05909 -2.74659 2.69254
C .38908 -4.36601 .97187
C 3.30048 -1.54680 2.28732
C 4.76739 .03861 1.07794
C 3.94142 -.23131 2.18476
C 3.59410 -2.49465 1.31172
C -3.51081 .63818 2.86990
C -3.65155 1.75337 2.04681
C -4.49445 1.59765 .89367
C -4.33317 2.43812 -.27725
C -3.39497 3.43520 -.26532
C -3.98179 -.65833 2.47311
C -4.35282 -2.05741 .52995
C -4.59535 -.83782 1.21919
C -4.87669 .32319 .44638
C -2.73630 -2.77867 2.25569
C -3.05795 -1.62939 2.97600
C -3.51829 -3.03889 1.08014
C -.16909 3.84197 -1.75993
C -1.32218 4.15451 -1.03805
C -2.61590 3.72883 -1.46122
C -4.50254 1.60191 -1.46054
C -3.67283 1.79960 -2.57582
C -2.73619 2.91856 -2.58620
C -1.55002 2.49032 -3.25419
C -.28289 2.94445 -2.89067
C -4.16059 -2.05433 -.93395
C -4.21426 -.83489 -1.67852
C -4.77982 .29341 -1.02417
C 2.25163 3.52835 -1.75367
C 1.11103 3.97802 -1.07763
C 1.14753 4.07336 .36497
C 3.47698 3.27448 -1.07677
C 3.53207 3.41991 .30809
C 2.35119 3.79161 1.01625
C 4.10279 2.12554 -1.70651
C 4.23372 2.43096 1.10711
C 4.86154 1.36670 .49942
C 4.80861 1.21995 -.95029
C .85706 2.12481 -3.26642
C 2.11804 2.53548 -2.81726
C 3.20683 1.64039 -2.73662
C -1.74173 1.11641 -3.65869
C -.68935 .23907 -3.79285
C .67912 .76272 -3.67612
C 1.47941 -1.55532 -3.58037
C 1.77475 -.14921 -3.55173
C 3.03032 .26490 -2.99657
C 3.85739 -.69123 -2.25466
C 4.72053 -.19214 -1.25589
C -3.26302 -3.05711 -1.26523
C -2.25315 -2.86144 -2.27296
C -2.22374 -1.62647 -2.97924
C -3.26353 -.63735 -2.73414
C -3.04897 .68674 -3.18884
C .11207 -2.04280 -3.59314
C -.97052 -1.18739 -3.60101
C -.83638 -4.47011 -1.01174
C -1.75262 -4.39007 .11332
C -2.95110 -3.77090 -.03144
C .08345 -3.29973 -2.90815
C -1.05818 -3.68900 -2.17948
C 2.74256 -3.74254 -.43380
C 1.39835 -3.57192 -2.45712
C 1.60014 -4.16402 -1.19201
C .46580 -4.59232 -.47132
C 4.86875 -.89545 -.01046
C 2.26256 -2.48055 -2.90417
C 3.41679 -2.06680 -2.14628
C 3.71048 -2.79885 -.98235
C 4.33294 -2.15828 .12901
