96 

C -.46411 -3.40947 -2.68975
C .73018 -2.76208 -2.98171
C 1.93819 -3.18467 -2.27555
C 3.12454 -2.32830 -2.29333
C 4.03999 -2.37771 -1.18836
C 3.07826 -1.14856 -3.03204
C -1.73724 -2.76803 -2.88482
C -1.84173 -1.42701 -3.26404
C -.61098 -.70929 -3.59273
C .63707 -1.42097 -3.54813
C 1.83505 -.68811 -3.63519
C -1.83723 1.45647 -3.25624
C -.60875 .73668 -3.58880
C .64152 1.44422 -3.54021
C 1.83721 .70828 -3.63130
C -1.72862 2.79500 -2.86975
C -3.05680 -.70738 -2.90024
C -4.03643 -1.37532 -2.13437
C -3.05459 .73875 -2.89634
C 3.83613 .00442 -2.65041
C 4.61531 -.00010 -1.47274
C 4.71436 -1.22796 -.75117
C 4.71807 1.22325 -.74418
C 3.08177 1.16172 -3.02548
C 3.13173 2.33707 -2.28007
C 4.04734 2.37747 -1.17482
C 2.61251 3.93759 .02056
C 3.71569 3.14353 .01261
C -.45350 3.43113 -2.67088
C .73878 2.78172 -2.96628
C 1.94801 3.19666 -2.25751
C 1.81260 4.09008 -1.18105
C 4.72597 1.21780 .73136
C 4.65234 -.00860 1.45372
C 4.72222 -1.23107 .72433
C 3.93136 -.01089 2.66298
C 3.18942 1.14413 3.07472
C 3.13245 2.29350 2.29303
C 4.03837 2.35445 1.18072
C 3.18590 -1.16595 3.06800
C 3.12538 -2.31075 2.27977
C 4.03105 -2.36818 1.16715
C 3.70603 -3.14962 -.00536
C 2.60069 -3.94050 -.00189
C 2.02494 -.71430 3.79805
C -.32850 -.72809 4.14507
C .80597 -1.44132 3.77270
C .66626 -2.60065 2.90368
C 1.86025 -3.06991 2.21806
C 1.69486 -3.94516 1.14667
C 1.70671 3.93847 1.16913
C 1.86952 3.05667 2.23563
C .67406 2.58708 2.91853
C .81021 1.42250 3.78099
C 2.02703 .69183 3.80215
C -.32644 .71050 4.14916
C -.58512 -4.28265 -1.55109
C 1.80018 -4.08389 -1.20425
C .51018 -4.51192 -.76303
C -1.63822 -1.17495 3.78414
C -1.82471 -2.22064 2.87738
C -.64450 -2.96662 2.42879
C -.77014 -3.79947 1.25395
C .40268 -4.30091 .67138
C -1.86796 -4.06402 -.93819
C -1.98213 -3.75613 .42975
C -2.63842 -3.33758 -1.91176
C -3.74010 -2.64102 -1.51701
C -4.07656 -2.57946 -.11374
C -3.98797 -1.17628 2.29043
C -3.13184 -2.97331 .85803
C -3.06605 -2.22856 2.10006
C -4.85983 .73738 1.24687
C -4.86215 -.72327 1.24286
C -4.89406 -1.40989 .04843
C -4.88961 1.43081 .05624
C -2.47583 -.00434 3.77206
C -3.98438 1.18141 2.29712
C -3.62406 -.00022 3.04160
C .41568 4.30080 .69568
C -1.97050 3.76498 .45058
C -.75862 3.79960 1.27532
C -.63552 2.95972 2.44555
C -4.06851 2.59858 -.09954
C -3.12262 2.98362 .87458
C -3.05915 2.23162 2.11254
C -1.81794 2.21494 2.88985
C -1.63470 1.16349 3.79062
C -3.73186 2.66693 -1.50256
C -2.62804 3.36204 -1.89351
C -1.85534 4.08025 -.91566
C -.57189 4.29820 -1.52719
C .52391 4.51948 -.73753
C -4.88660 -.67373 -1.21217
C -4.88449 .70168 -1.20843
C -4.03218 1.40560 -2.12686
