96 

C -1.19878 3.24694 2.64748
C -2.12317 2.20177 2.72115
C -2.58512 -.23080 3.02735
C -3.84563 -.02100 2.43979
C -4.53818 -1.05462 1.73804
C -4.02672 -2.33686 1.75178
C -.26480 .67150 3.38921
C -1.66658 .90254 3.16349
C -.65131 -1.80288 3.28228
C -2.08293 -1.57633 3.09414
C -2.86543 -2.61325 2.53339
C -.14833 -3.07966 2.95935
C -.92333 -4.00770 2.15473
C -2.22991 -3.75012 1.90391
C .26950 -.70423 3.38246
C 1.67109 -.93328 3.15397
C .15294 3.05088 2.98860
C 2.87012 2.58810 2.55685
C 2.08755 1.54609 3.10808
C .65597 1.77103 3.29894
C -4.92530 -1.17151 -.67660
C -4.28393 -2.47621 -.68139
C -5.08546 -.48910 .51495
C -3.93231 -3.09209 .50498
C -2.74076 -3.88658 .55679
C -3.37710 1.49086 -2.78696
C -4.30768 .95149 -1.85420
C -4.45918 -.44985 -1.84802
C -3.51921 -1.28669 -2.52463
C -1.18090 -1.45902 -3.27457
C -2.44386 -.74240 -3.23245
C -2.45866 .65607 -3.45276
C 1.21679 -1.36099 -3.63082
C -.00223 -.72024 -3.68250
C -2.13055 -3.17178 -1.71461
C -3.36295 -2.51615 -1.78382
C 1.92242 -4.18406 -.79801
C .57924 -4.08485 -1.21633
C .28151 -3.25469 -2.37781
C -1.03539 -2.69044 -2.56079
C 1.35796 -2.64801 -3.04340
C -1.83527 -3.94929 -.52293
C -.08422 -4.52413 1.10628
C -.46117 -4.34107 -.24033
C -4.54218 1.68327 -.60864
C -4.84758 .94021 .55609
C -2.71681 2.77025 -2.55669
C -2.98883 3.48941 -1.42376
C -3.88328 2.92328 -.41415
C -1.35540 2.67312 -3.01663
C 2.13306 3.18463 -1.68476
C 3.36548 2.53010 -1.76119
C 1.03765 2.71066 -2.53449
C -.27885 3.27351 -2.34554
C -.57613 4.09346 -1.17663
C -1.91908 4.18926 -.75724
C .00413 .75123 -3.67492
C -1.21455 1.39165 -3.61623
C 2.46089 -.62675 -3.46025
C 2.44592 .76956 -3.22599
C 1.18290 1.48615 -3.26001
C 3.52155 1.30772 -2.51365
C -2.25060 4.18301 .64060
C -3.37177 3.28729 .85301
C -3.33075 2.33149 1.90310
C -4.16191 1.22310 1.77120
C -1.25103 4.24193 1.57165
C .46462 4.34102 -.19892
C 1.83853 3.95173 -.48600
C .08824 4.51242 1.14930
C .92784 3.98633 2.19241
C 2.23437 3.73090 1.93847
C 2.74472 3.87967 .59242
C 4.92874 1.17583 -.66761
C 4.28723 2.48047 -.65977
C 3.93618 3.08549 .53242
C 5.08917 .48234 .51743
C 3.37967 -1.46733 -2.80257
C 4.31057 -.93633 -1.86503
C 4.46215 .46491 -1.84555
C 3.88666 -2.92121 -.44345
C 2.99205 -3.47829 -1.45828
C 2.71956 -2.74899 -2.58453
C 4.85110 -.94724 .54514
C 4.54547 -1.67945 -.62644
C 1.25502 -4.25756 1.53057
C 4.16587 -1.24125 1.75786
C 3.33472 -2.35069 1.87954
C 3.37541 -3.29664 .82038
C 2.25428 -4.19032 .59971
C 4.03094 2.31871 1.77203
C 4.54224 1.03659 1.74596
C 3.84983 -.00340 2.43826
C 2.58950 .20118 3.02823
C 2.12747 -2.22834 2.69907
C 1.20316 -3.27266 2.61567
