96 

C -4.84830 .66291 .11693
C -4.90317 -.75532 .29462
C -3.65502 3.23463 -.38437
C -3.95476 2.40090 -1.42978
C -4.62518 1.13463 -1.19062
C -2.45042 4.01299 -.42831
C -4.21442 .23900 -2.22753
C -4.17776 -1.14943 -2.02088
C -4.59561 -1.64316 -.74954
C -3.19443 -1.90097 -2.74884
C -3.18058 .89506 -3.00048
C -.80132 .79806 -3.58757
C -2.10927 .17749 -3.51870
C -2.20173 -1.25112 -3.48513
C 1.60380 .49708 -3.70616
C .35105 -.07225 -3.75173
C -1.73075 2.82448 -2.45755
C -2.99114 2.21857 -2.48173
C 2.29990 3.79271 -1.42646
C .98768 3.68516 -1.93169
C .71772 2.65301 -2.92463
C -.62026 2.13563 -3.10693
C 1.79235 1.86547 -3.36093
C -1.47027 3.81518 -1.42389
C .19108 4.65533 .18052
C -.10168 4.19844 -1.12181
C -2.62165 -3.13495 -2.20244
C -2.97099 -3.57657 -.89902
C -3.95552 -2.83585 -.17151
C -1.98088 -4.25093 -.15380
C -1.28667 -3.23376 -2.64722
C 1.10670 -3.34666 -2.00582
C -.26575 -3.83153 -1.86633
C -.66801 -4.45784 -.67417
C 3.33487 -3.09083 -.98899
C 2.08484 -3.70465 -.97249
C .25352 -1.52408 -3.50180
C -1.00432 -2.06858 -3.43707
C 2.78052 -.25646 -3.29124
C 2.65932 -1.59196 -2.82238
C 1.36933 -2.24949 -2.87218
C 3.63037 -2.03598 -1.91645
C -1.85276 -4.01954 1.26012
C -2.65163 -3.08918 1.91307
C -3.81995 -2.63849 1.20828
C -4.45555 -1.37800 1.53431
C -3.93941 -.60793 2.53698
C -.46451 -4.18491 1.61460
C 1.53475 -3.30657 2.57744
C .14526 -3.35093 2.58841
C -.60127 -2.22465 3.13028
C -2.02332 -2.18493 2.89156
C -2.70187 -1.00500 3.20130
C 1.61442 -4.22237 .30911
C .24413 -4.52634 .44945
C 2.29094 -3.85566 1.48977
C -3.86873 2.77074 .98426
C -4.40176 1.48862 1.24485
C -3.94006 .83894 2.41938
C -2.79228 1.31228 3.09886
C -2.17539 2.52007 2.75685
C -2.83194 3.31679 1.78499
C -.75699 4.46582 1.24267
C -2.06065 4.21308 .94322
C 2.24840 -2.16891 3.10310
C 1.56426 -.98553 3.41210
C .10816 -1.02479 3.48895
C -.60064 .22022 3.58660
C -1.99625 .17703 3.53446
C 1.48534 1.52312 3.09860
C .07314 1.50696 3.33079
C -.72868 2.64625 2.95162
C -.09811 3.73778 2.32553
C 3.54450 -2.16677 2.49733
C 4.20025 -.96512 2.31445
C 3.56483 .24749 2.72979
C 2.24986 .27678 3.22044
C 2.09121 2.64379 2.42078
C 1.27796 3.72399 2.04341
C 4.83169 -1.60894 .03832
C 4.10800 -2.85293 .21684
C 3.55463 -3.16586 1.44544
C 4.92224 -.70522 1.08214
C 3.69345 .64002 -2.71404
C 4.49862 .25182 -1.59791
C 4.54743 -1.11941 -1.30027
C 4.11971 2.50802 -.64076
C 3.35603 2.90036 -1.82772
C 3.11580 1.97598 -2.80847
C 4.81879 .71403 .80882
C 4.68165 1.21169 -.50745
C 1.47609 4.41412 .76574
C 4.06649 1.30013 1.86867
C 3.34808 2.47824 1.69091
C 3.55046 3.17409 .46626
C 2.52787 4.07480 -.03560
