96 

C -1.17250 4.45499 .26723
C -2.11091 3.85296 1.09739
C -3.33114 3.41931 .47909
C -4.13991 2.37496 1.07382
C -3.76066 1.82003 2.25908
C .22555 4.49131 .62655
C 2.06375 3.57929 1.85204
C .69669 3.84632 1.79877
C -.22093 3.03161 2.57958
C -1.63859 3.15107 2.30319
C -2.49752 2.21811 2.88130
C -2.53850 -1.28243 3.51728
C -3.96084 .40059 2.50360
C -2.96222 .01918 3.45334
C 2.58324 2.49943 2.65521
C 1.71288 1.55545 3.20138
C .28671 1.87136 3.24928
C -.61775 .83764 3.66966
C -1.99306 1.09104 3.58600
C -1.12810 -1.56750 3.69749
C -.16775 -.55924 3.72035
C -3.10042 -2.25743 2.63664
C -3.92225 -1.87049 1.55894
C -4.37263 -.48329 1.48900
C -4.74698 .10470 .19155
C -4.65079 1.52572 .01448
C -4.63624 -.67783 -.95852
C -2.09924 -3.29843 2.50035
C -2.05677 -4.07310 1.37382
C -2.94049 -3.75477 .26500
C -3.83589 -2.66485 .33173
C -4.16487 -2.04772 -.89612
C -.86071 -2.83000 3.08050
C .38277 -3.11119 2.51061
C 1.46155 -2.17249 2.74087
C 3.43879 -.14699 2.81053
C 1.18283 -.90425 3.33899
C 2.15588 .16741 3.25960
C -4.18398 -.11422 -2.19948
C -3.92366 1.26396 -2.32077
C -4.24149 2.09407 -1.20360
C -2.84761 1.65523 -3.17169
C -3.34331 -1.08137 -2.83776
C .02125 -3.61672 -2.55739
C -1.12768 -2.87466 -2.82013
C -.97044 -1.55243 -3.39545
C -2.15316 -.69528 -3.46831
C -1.97390 .68992 -3.70090
C -3.40323 -2.29686 -2.05686
C -2.23847 -4.06174 -.93699
C -2.33635 -3.21152 -2.05909
C -2.06923 2.86432 -2.90188
C -2.34578 3.66649 -1.75893
C -3.43428 3.28844 -.91240
C -1.26150 4.33926 -1.16274
C -.73727 2.61831 -3.28551
C 1.62988 2.49308 -2.57151
C .36285 3.22085 -2.63010
C .06968 4.19567 -1.66439
C 3.80106 2.20844 -1.48101
C 2.65076 2.97072 -1.65054
C 1.31584 -3.08526 -2.79480
C 1.50068 -1.74885 -3.18314
C .33708 -.96735 -3.50474
C .48700 .49575 -3.58287
C -.64918 1.25728 -3.75022
C 2.77440 -1.10375 -2.85325
C 2.86230 .34980 -2.80243
C 1.70258 1.16099 -3.08472
C 3.93159 .92910 -2.10025
C 2.28105 3.87544 -.56448
C .97949 4.41182 -.55860
C 2.89571 3.72029 .69506
C 4.69140 -1.22147 -1.26892
C 4.83915 .14441 -1.29488
C 5.13701 .87835 -.07942
C 4.55616 2.19431 -.23195
C 4.03997 2.85760 .86613
C 2.21043 -3.71191 -1.84517
C 3.36448 -3.08621 -1.49471
C 3.73124 -1.84706 -2.13987
C -.96416 -4.64581 -.56733
C 1.42546 -4.37879 -.84036
C .11168 -4.50361 -1.39957
C 4.73343 -1.19625 1.17941
C 3.71350 -1.41192 2.17895
C 2.71864 -2.37839 2.03817
C 4.67461 -1.92578 .00767
C 3.74534 -3.01611 -.10061
C 2.77876 -3.27293 .89098
C 1.59774 -4.03631 .51585
C .43259 -4.03097 1.37869
C -.78576 -4.50347 .85279
C 3.86515 2.14009 2.11282
C 5.05055 .21948 1.14801
C 4.31197 .83937 2.22721
