96 

C -4.63494 -.22711 -.28959
C -4.47749 -1.20249 .70970
C -3.78137 1.60731 -2.30545
C -3.90419 .28331 -2.61929
C -4.40685 -.64588 -1.63502
C -2.63120 2.34975 -2.76954
C -2.86864 -.37372 -3.38242
C -1.68073 .30427 -3.76822
C -1.57857 1.72269 -3.47855
C 1.31274 3.70878 -2.15750
C -.02886 3.42768 -2.50425
C -.29122 2.36100 -3.44963
C .80342 1.62861 -3.95941
C -3.82625 -1.90102 -1.92675
C -3.60388 -2.85656 -.90390
C -3.97649 -2.50878 .41210
C -2.52558 -3.77160 -1.06996
C -2.84427 -1.71921 -2.99470
C .70911 .22319 -4.15194
C -.49085 -.47912 -3.94718
C -.42489 -1.86445 -3.49168
C -1.63323 -2.47654 -3.02800
C -1.56284 -3.60152 -2.17222
C -1.84071 -4.28868 .03638
C -2.04564 -3.73908 1.34846
C -3.17235 -2.93525 1.52082
C -3.19598 -1.89442 2.51323
C -2.05630 -1.62372 3.30782
C -1.97336 -.33114 3.84470
C -.51019 -4.64672 -.41970
C -.88101 -3.52333 2.21529
C -.84139 -2.40999 3.12426
C .52607 -4.64173 .45489
C .34371 -4.10158 1.79968
C -.32882 -4.11766 -1.76903
C .89515 -3.54094 -2.18972
C .85369 -2.43557 -3.10811
C -4.02344 -.84851 2.03626
C -2.86826 .71012 3.44253
C -3.80287 .49767 2.40889
C -2.15083 1.95368 3.55603
C -2.40711 2.96901 2.66306
C -.79726 1.66202 3.93848
C -1.30933 3.72510 2.11804
C .03268 3.44919 2.46752
C .29637 2.39139 3.42234
C 2.87811 -.33963 3.38046
C 1.68901 .33970 3.75991
C 1.58466 1.75549 3.45717
C 2.63640 2.37821 2.74244
C 1.57702 -3.58046 2.19875
C 1.64581 -2.44793 3.04507
C .43629 -1.83349 3.50311
C .50029 -.44383 3.94599
C -.70092 .25873 4.14408
C 2.85559 -1.68849 3.00488
C -3.40674 2.78870 1.62810
C -4.04664 1.55525 1.42446
C -4.44185 1.18992 .06137
C -2.99318 3.60933 .52467
C -3.34274 3.25557 -.75412
C -4.13637 2.08025 -.97779
C -1.66407 4.11582 .79187
C -2.36772 3.37519 -1.82037
C -1.05418 3.82871 -1.57556
C -.69257 4.22016 -.22256
C 2.37156 3.39510 1.78433
C 1.05731 3.84407 1.53553
C .69491 4.22311 .17909
C 1.66657 4.11148 -.83472
C 4.14166 2.09580 .95280
C 3.34668 3.26744 .71847
C 2.99671 3.60912 -.56358
C 4.44872 1.19650 -.07865
C 4.05321 1.54893 -1.44518
C 3.41178 2.77923 -1.66004
C 4.41602 -.62410 1.63485
C 3.91241 .31274 2.61070
C 3.78786 1.63344 2.28445
C 4.48811 -1.20165 -.70467
C 4.64441 -.21726 .28542
C 2.53990 -3.75782 1.09786
C 3.98881 -2.50589 -.39524
C 3.61676 -2.84238 .92380
C 3.83764 -1.87746 1.93813
C 1.98271 -.36201 -3.84754
C 2.06767 -1.64925 -3.29891
C 3.20803 -1.91156 -2.50213
C 3.18572 -2.94344 -1.50042
C 2.06035 -3.74712 -1.32115
C 1.85600 -4.28500 -.00420
C 2.41186 2.94901 -2.69624
C 2.15710 1.92547 -3.58020
C 3.81138 .48195 -2.41998
C 2.87667 .68383 -3.45548
C 4.03421 -.86053 -2.03480
