96 

C -4.05100 -2.11827 1.02143
C -4.24677 -.79453 1.48272
C -4.83211 .11670 .55910
C -4.74728 1.50164 .76258
C -4.09880 1.99124 1.91182
C -3.43431 1.08788 2.77302
C -3.41073 -.30699 2.53862
C -3.11530 -2.95409 1.61921
C -2.12857 -2.42686 2.52595
C -3.68621 3.23687 -.59822
C -3.07149 3.79190 .59985
C -4.48538 2.12439 -.52529
C -3.28770 3.19595 1.82303
C -2.16775 3.03600 2.72003
C -.88814 3.57331 2.41555
C .18152 3.02834 3.12585
C -.63487 -4.23100 1.75159
C -.84720 -3.11340 2.59604
C -2.25463 -1.09116 2.97909
C .19933 -1.03699 3.55670
C -1.07650 -.40057 3.54300
C -1.13674 1.03578 3.71860
C -2.27923 1.75988 3.32229
C .05443 1.77776 3.79706
C -1.36830 2.32915 -3.35713
C -2.58530 2.34622 -2.65681
C -2.73568 3.36633 -1.68675
C -1.58525 4.04540 -1.18845
C .87409 3.92897 -.92122
C -.31480 3.86987 -1.76575
C -.27621 3.15004 -2.97957
C 3.23188 3.27969 -.61914
C 2.14786 3.45521 -1.47868
C -.63925 4.12595 1.07841
C -1.73594 4.23796 .23204
C 1.54139 3.15270 2.65827
C 1.81604 3.68023 1.36133
C .70959 4.04779 .49054
C 3.04918 3.33554 .80423
C -3.32487 1.09998 -2.52355
C -4.34332 1.05836 -1.51360
C -.83835 1.10308 -3.87978
C -1.43803 -.11513 -3.63021
C -2.75445 -.12687 -2.97925
C -3.25532 -1.38459 -2.45198
C -2.49324 -2.56240 -2.66698
C .59914 1.24315 -3.95150
C 2.76807 .40432 -3.39408
C 1.45803 .12883 -3.77668
C .88403 -1.16994 -3.49033
C -.56214 -1.29829 -3.56963
C -1.12735 -2.48756 -3.16669
C 3.14724 1.71052 -2.93119
C 2.16104 2.69460 -2.72790
C .93764 2.49356 -3.40801
C 4.24892 1.54717 -2.02054
C 4.30336 2.34122 -.88980
C -4.17375 -1.38224 -1.35542
C -4.66881 -.13711 -.88324
C -2.57296 -3.67463 -1.80434
C -3.36544 -3.59069 -.63835
C -4.14400 -2.44768 -.41251
C -1.24931 -4.28582 -1.73066
C -2.78171 -3.97329 .63908
C -1.55915 -4.57452 .68828
C -.78485 -4.79066 -.53534
C -.35156 -3.51218 -2.54689
C .99183 -3.29488 -2.20850
C 1.65315 -2.13589 -2.76668
C 3.55704 -.58090 -2.70238
C 2.99388 -1.79127 -2.28764
C 3.51955 -2.41089 -1.07820
C 2.72949 -3.42304 -.39008
C 1.50778 -3.93337 -1.00480
C .60568 -4.65266 -.19869
C 2.88790 -3.56401 .99890
C 4.97014 -.41430 -.73242
C 4.53920 .12856 -1.92530
C 4.45821 -1.71582 1.10625
C 4.49879 -1.71460 -.34069
C 3.61398 -2.57871 1.75119
C 4.71054 1.76089 .37458
C 4.59437 -.36724 1.58014
C 5.04775 .42439 .45458
C 2.26414 2.05292 3.14538
C 2.76151 -2.09500 2.80517
C 2.70813 -.75019 3.13124
C 3.69883 .15045 2.53216
C 3.42083 1.57615 2.48444
C 3.90372 2.35107 1.41459
C .66563 -4.51952 1.24685
C 1.75914 -3.92512 1.82041
C 1.58017 -2.93114 2.83019
C .30450 -2.42146 3.12300
C 1.42923 -.23632 3.64013
C 1.32058 1.13920 3.77269
