96 

C -3.65553 -3.19775 -.46629
C -4.24105 -2.37571 .50388
C -4.89959 -1.18188 .04010
C -5.01559 .00459 .88316
C -4.46862 .00969 2.13422
C -2.52859 -4.05481 -.15148
C -2.02796 -4.09584 1.14161
C -2.58159 -3.20180 2.14045
C -3.66738 -2.36729 1.85519
C -3.76194 -1.16630 2.62678
C -.23580 -4.07022 -1.06380
C -1.61648 -4.01278 -1.24624
C -.62216 -4.18965 1.34848
C .27643 -4.23813 .27658
C -2.57552 3.21763 2.10972
C -3.66278 2.38247 1.83254
C -3.75958 1.18886 2.61543
C -1.49116 -2.74179 2.95954
C -1.45399 -1.43291 3.45781
C -2.67624 -.71115 3.38677
C -2.67483 .73878 3.37969
C -1.45127 1.45900 3.44353
C -1.48590 2.76325 2.93294
C -4.23638 2.38000 .48121
C -4.89727 1.18319 .02887
C -2.02012 4.10172 1.10277
C -2.52072 4.05006 -.18983
C -3.64921 3.19226 -.49659
C -.61414 4.19489 1.30893
C -1.60854 3.99659 -1.28399
C -.22761 4.05352 -1.10202
C .28483 4.23235 .23683
C 3.25432 2.64173 1.86937
C 2.01328 3.25696 1.75628
C 1.67663 3.92109 .51955
C 2.54363 3.77963 -.57166
C 3.39843 1.39727 2.61447
C -.29125 3.38869 2.47989
C 1.00756 -1.42936 3.23044
C -.18445 -.72697 3.53792
C -.18305 .75174 3.53053
C .94058 2.78009 2.62501
C 1.01028 1.44903 3.21622
C 2.26952 .72558 3.12619
C -3.46925 2.70675 -1.84422
C -3.98578 1.45821 -2.23941
C -4.77502 .73160 -1.28712
C -3.25003 .71684 -3.20607
C -2.19261 3.15647 -2.31252
C 1.98035 3.37751 -1.85932
C .61815 3.38925 -2.09356
C .06296 2.38524 -2.97234
C -1.38491 2.32714 -3.10395
C -1.97355 1.14546 -3.61364
C -3.25146 -.74754 -3.19903
C -3.98854 -1.47886 -2.22541
C -4.77648 -.74233 -1.28005
C -3.47461 -2.72482 -1.81841
C -1.97585 -1.18209 -3.60254
C .05790 -2.41938 -2.94942
C -1.38969 -2.36007 -3.08151
C -2.19887 -3.18096 -2.28248
C 1.97313 -3.40518 -1.82752
C .61100 -3.41643 -2.06141
C .20495 -.02046 -3.65309
C -1.15982 -.02021 -3.85163
C 4.23237 -.01811 -2.24296
C 2.99524 -.01985 -2.91372
C 2.26352 -1.27972 -3.01199
C .85818 -1.29127 -3.31899
C 2.81872 -2.41935 -2.40461
C .86096 1.25213 -3.33118
C 2.82399 2.38458 -2.42711
C 2.26622 1.24060 -3.02376
C 5.28824 -.73673 -.25493
C 4.71231 -1.17579 -1.52099
C 4.01238 -2.35480 -1.59858
C 4.97815 -1.43251 .90691
C 4.01744 2.32481 -1.62029
C 5.28974 .71641 -.26160
C 4.71477 1.14511 -1.53167
C 4.50492 -.69439 2.06882
C 4.50628 .69691 2.06231
C 4.98108 1.42345 .89374
C 4.20531 2.64761 .80519
C 3.81089 3.14564 -.43907
C -.29768 -3.37349 2.51212
C .93526 -2.76576 2.65154
C 3.39582 -1.38758 2.62776
C 2.26818 -.70907 3.13317
C 3.80429 -3.16427 -.40979
C 2.53575 -3.79689 -.53634
C 1.66878 -3.92695 .55631
C 4.19991 -2.65587 .82983
C 3.24917 -2.63858 1.89418
C 2.00695 -3.25249 1.78695
