96 

C -.35382 4.24050 -1.43434
C -1.40429 3.61367 -2.10330
C -2.65532 3.56277 -1.41322
C -.42444 4.48411 -.01717
C -1.54636 4.10646 .71911
C -2.72493 3.80599 -.02955
C -1.08208 2.58962 -3.08415
C -2.11884 1.67026 -3.42520
C 1.01033 3.98797 -1.78770
C 1.35588 2.97129 -2.67729
C .27248 2.20100 -3.30442
C .54344 .84720 -3.75377
C 1.87388 .36240 -3.67406
C 1.80542 4.26626 -.60074
C 3.03079 3.70092 -.44380
C 3.54530 2.81140 -1.46441
C 2.70426 2.40181 -2.55422
C 2.94987 1.14630 -3.09957
C -2.42653 2.74867 2.57106
C -1.34205 3.49054 2.02406
C 1.13792 3.73305 1.73687
C .89638 4.38513 .52928
C -.49713 -.12333 -3.84221
C -1.83110 .34905 -3.76962
C 2.14409 -.98602 -3.45526
C 1.10323 -1.94226 -3.30173
C -.23668 -1.53020 -3.56306
C -1.34336 -2.38663 -3.13699
C -1.03897 -3.56628 -2.46023
C 2.60778 -3.15880 -1.66924
C 1.39037 -3.11102 -2.48745
C .30990 -3.91219 -2.11780
C 2.56777 -3.87646 -.46545
C 1.35505 -4.48648 -.00195
C .27831 -4.59400 -.84484
C 3.40006 -1.08509 -2.72590
C 4.44160 -1.78213 -.66272
C 3.61217 -2.09705 -1.79201
C 4.40020 1.90329 -.82285
C 4.57819 .58250 -1.33086
C 3.89323 .24220 -2.51691
C 4.85805 -.46667 -.40579
C -2.68508 -1.83086 -2.94982
C -2.91844 -.49853 -3.30504
C -1.89950 -4.07948 -1.40274
C -3.09772 -3.47899 -1.13886
C -3.54144 -2.37959 -1.95954
C -2.70237 -2.68103 2.43680
C -3.48589 -3.22018 .22966
C -2.58222 -3.48397 1.29159
C -1.29314 -4.11015 1.00418
C -.13653 -3.81845 1.86100
C -1.05445 -4.52705 -.31432
C 1.13713 -4.11144 1.37828
C -4.33274 -1.53442 -1.14144
C -4.44393 -.15785 -1.40170
C -3.85192 .30578 -2.60614
C -3.41126 1.67171 -2.74522
C -3.66069 2.56405 -1.74174
C -4.51001 .26394 1.08966
C -4.59625 .76824 -.27697
C -4.29180 2.12098 -.51070
C -4.09325 1.15051 2.10040
C -3.64606 2.47388 1.80090
C -3.77564 2.96161 .52465
C -4.28344 -2.04626 .22486
C -3.60731 -1.59190 2.48535
C -4.30989 -1.17059 1.32475
C -1.73002 -1.07922 3.80010
C -3.05168 -.62750 3.40460
C -3.28700 .70160 3.21803
C -.64485 -.17683 3.96394
C -.89252 1.24736 3.75724
C -2.20855 1.66004 3.42380
C 2.30030 -3.40140 1.82901
C 2.21209 -2.34167 2.72769
C .89675 -2.02218 3.28433
C -.23472 -2.81640 2.91147
C -1.52909 -2.34360 3.24220
C 1.73722 .24660 3.79650
C .66846 -.69806 3.82567
C 4.26832 -1.39149 1.65259
C 4.18167 -2.40172 .62218
C 3.25079 -3.38841 .72125
C 3.03760 -.08272 3.25304
C 3.28091 -1.33196 2.69241
C 4.32378 2.14655 .63216
C 3.60458 1.11247 2.70487
C 4.41439 1.06099 1.55118
C 4.76233 -.22639 1.04676
C .18202 2.10961 3.39840
C -.01645 3.21669 2.49043
C 1.50207 1.60210 3.57911
C 2.64440 2.15763 2.88102
C 2.47955 3.16582 1.93547
C 3.42689 3.20210 .85626
