96 

C -.40047 3.50660 -2.60715
C .75749 2.92176 -3.11243
C 1.97821 3.31648 -2.49978
C -.40040 4.16143 -1.33859
C .75757 4.23474 -.56875
C 1.97841 3.96413 -1.24496
C .64689 1.60942 -3.74765
C 1.84630 .88711 -3.91238
C 1.84832 -.51295 -3.97887
C -1.68916 2.89938 -2.80549
C -1.82035 1.59399 -3.28886
C -.60695 .89334 -3.74071
C -.60496 -.54362 -3.80892
C .65105 -1.25158 -3.88345
C -1.81639 -1.28753 -3.42532
C -1.68162 -2.63217 -3.06731
C -2.52628 3.39019 -1.74430
C -3.02169 .85533 -2.91841
C -3.01977 -.59061 -2.98677
C -3.64523 2.70007 -1.38818
C -3.97371 1.48276 -2.08426
C 1.84693 3.70716 1.55315
C .64743 3.99175 .86873
C -1.82002 3.60895 .61453
C -1.68921 3.97115 -.72938
C 3.10064 -.98162 -3.37851
C -.39104 -3.25105 -2.92720
C .76521 -2.61763 -3.37512
C 1.98734 -3.06428 -2.80237
C 3.15794 -2.20422 -2.77567
C -3.63772 -2.57286 -1.63690
C -2.51699 -3.22297 -2.05663
C -.38891 -4.02211 -1.72569
C -3.96986 -1.29646 -2.21543
C -4.82207 .73577 -1.19579
C -4.82017 -.63882 -1.26061
C 3.10759 -3.48314 .51620
C 3.81446 -2.34350 -1.50387
C 3.16149 -3.44319 -.84647
C 3.16185 -1.30222 3.30447
C 3.10784 -2.43569 2.54707
C -1.67796 -3.89395 -1.10083
C .76948 -4.16393 -.96640
C 1.98949 -3.82710 -1.61414
C 1.85764 -3.19358 2.44120
C -3.96617 -2.56797 -.23454
C -3.01307 -2.97376 .72596
C -1.80980 -3.66031 .27136
C -.59630 -3.69774 1.10408
C .65863 -4.05805 .48759
C 1.85750 -3.83597 1.19556
C .65898 -2.74515 3.03305
C -.59619 -3.03817 2.38260
C 3.77636 -2.46761 1.27787
C 4.26923 -1.29116 .67107
C 4.27439 -1.22135 -.78414
C 4.26539 .07321 -1.45264
C 3.76905 .13482 -2.77346
C 3.09733 1.30120 -3.27012
C 4.27080 1.29872 -.66451
C 3.80773 2.48238 -1.27497
C 3.15138 2.46151 -2.55431
C 3.81502 -.12898 2.78949
C 4.26579 1.23037 .79089
C 4.27483 -.06494 1.45795
C 3.15163 3.51299 -.51651
C 3.09800 3.42372 .84385
C 3.76984 2.34257 1.50629
C 1.98818 .51163 4.12922
C 3.15881 .98825 3.41308
C 3.10156 2.18838 2.76649
C -.39007 .50586 4.35366
C .76621 1.23761 4.09689
C -3.01301 -2.30984 2.01238
C -1.80954 -2.33750 2.83507
C -1.67748 -1.35463 3.82050
C -.38819 -.92018 4.28644
C .77001 -1.62162 3.96191
C 1.99012 -.89881 4.06245
C -4.81768 -.79628 1.19106
C -4.81790 -1.42754 -.03180
C -3.63710 -.15145 3.05417
C -3.96599 -1.29170 2.23803
C -2.51624 -.18646 3.82702
C -4.82188 1.40557 .10172
C -3.96905 1.05951 2.34872
C -4.81974 .66224 1.25981
C 1.84919 2.94948 2.73230
C .65186 2.44369 3.27838
C -.60415 2.79377 2.65807
C -.60648 3.57115 1.44767
C -1.68058 .97921 3.93036
C -1.81553 2.05030 3.04192
C -3.01902 2.09703 2.22000
C -3.02136 2.87902 1.00188
C -3.97351 2.56244 .00735
