96 

C 2.80606 -2.41631 2.39233
C 1.43436 -2.48623 2.64637
C .72111 -3.61589 2.09177
C -.72828 -3.61570 2.08901
C -1.39143 -4.46788 1.17852
C -2.72062 -4.19018 .73250
C -1.44361 -2.48578 2.64053
C -2.81425 -2.41551 2.38105
C -3.46479 -3.24205 1.40185
C 3.50817 -1.16483 2.43163
C .71339 -1.25810 3.04504
C -.72404 -1.25788 3.04185
C 3.49476 1.20664 2.45035
C 2.86319 .00673 2.83395
C 1.42580 -.01630 3.13848
C -3.45883 -3.24307 -1.40173
C -4.42886 -2.42499 -.69578
C -2.71753 -4.19069 -.72853
C -4.43184 -2.42444 .69105
C -4.50853 -1.15498 1.38996
C -4.82271 .04714 .72548
C -4.45114 1.24238 1.38902
C -3.50241 1.20740 2.43505
C -3.51630 -1.16394 2.41710
C .70745 1.23569 3.18059
C -.71841 1.23587 3.17738
C -1.43666 -.01595 3.13209
C -2.87267 .00747 2.82154
C 2.81564 -2.41783 -2.36779
C 1.44501 -2.48795 -2.62708
C -1.38659 -4.46867 -1.16913
C -2.80442 -2.41744 -2.37926
C -1.43272 -2.48777 -2.63306
C -.71969 -3.61717 -2.07759
C .72962 -3.61735 -2.07473
C -3.50633 -1.16588 -2.41949
C 1.43804 2.48742 -2.84854
C .72458 3.62546 -2.44585
C -2.86116 .00533 -2.82251
C -1.42380 -.01814 -3.12696
C -.71159 -1.26004 -3.03240
C .72574 -1.26009 -3.02927
C -.71172 3.62560 -2.44916
C 3.51782 -1.16630 -2.40480
C -1.42379 2.48766 -2.85488
C -.70530 1.23377 -3.16977
C .72053 1.23369 -3.16654
C 1.43849 -.01830 -3.12047
C 2.87446 .00503 -2.81005
C -2.76661 2.44728 -2.44517
C -3.49240 1.20562 -2.43949
C -4.81976 .04654 -.73439
C -4.50277 -1.15622 -1.39637
C -4.44553 1.24133 -1.39744
C -.67588 -4.92196 .00625
C 1.39272 -4.46919 -1.16377
C .67717 -4.92223 .00884
C 3.46611 -3.24379 -1.38803
C 2.72193 -4.19144 -.71793
C 3.46036 -3.24279 1.41554
C 4.43046 -2.42530 .70890
C 2.71891 -4.19085 .74310
C 4.43331 -2.42578 -.67793
C 4.50459 -1.15600 1.40853
C 4.44780 1.24149 1.40813
C 4.82177 .04623 .74572
C 4.51016 -1.15682 -1.37775
C 4.45321 1.24067 -1.37842
C 4.82465 .04575 -.71413
C 2.77901 2.44688 -2.43290
C 3.50441 1.20515 -2.42431
C 1.38790 -4.46819 1.18390
C 4.27964 2.50338 -.67324
C 4.27697 2.50386 .70180
C 2.38297 4.15770 .73950
C 3.25536 3.26522 1.40610
C 1.17302 4.45752 1.40132
C .00296 4.94560 -.68353
C 1.17884 4.45646 -1.38704
C 2.38595 4.15727 -.71970
C 3.26101 3.26438 -1.38213
C .00006 4.94616 .69219
C -3.25270 3.26499 -1.39657
C -2.38012 4.15782 -.73043
C -1.17011 4.45689 -1.39239
C -3.25838 3.26580 1.39155
C -4.27724 2.50465 .68310
C -4.27453 2.50423 -.69190
C -1.17598 4.45764 1.39594
C -2.38313 4.15830 .72872
C 2.76904 2.44834 2.45515
C 1.42619 2.48916 2.86470
C .71432 3.62701 2.45837
C -.72199 3.62714 2.45513
C -1.43564 2.48944 2.85828
C -2.77664 2.44890 2.44270
