96 

C -.25040 2.84317 -3.35355
C -1.50507 3.04780 -2.76929
C -2.54102 2.17333 -3.19114
C -3.68511 1.90225 -2.33786
C -3.80130 2.55475 -1.14487
C .95712 3.30947 -2.71674
C 2.12392 3.87333 -.71252
C .91970 3.89563 -1.42987
C -.36021 3.98678 -.71247
C -1.57147 3.66197 -1.43403
C -2.75336 3.47444 -.70354
C -3.68951 1.89160 2.33543
C -4.31380 1.85265 -.00191
C -3.80355 2.54953 1.14520
C -2.54743 2.15908 3.19238
C -.25729 2.82840 3.36269
C -1.51073 3.03544 2.77658
C 2.12245 3.87023 .73155
C .91667 3.88938 1.44629
C -.36167 3.98358 .72647
C -1.57443 3.65552 1.44394
C -2.75476 3.47120 .71011
C .95149 3.29753 2.73062
C -4.01834 .49366 2.41182
C -4.30387 -.26214 1.25535
C -4.47173 .44959 -.00520
C -4.30179 -.25627 -1.26856
C -4.01418 .50472 -2.42107
C -3.94740 -1.67471 1.25335
C -3.76920 -2.37867 -.01065
C -3.94556 -1.66892 -1.27191
C -2.98619 -3.55129 -.01219
C -3.21871 -.03815 3.48114
C -2.85193 -1.35312 3.46163
C -3.31993 -2.20246 2.40207
C -2.36348 -3.26866 2.31121
C -2.20828 -3.93764 1.13252
C .04264 1.62572 4.05721
C -.91599 .61625 4.20679
C -2.25677 .96937 3.90123
C -2.20581 -3.93243 -1.15674
C -2.35899 -3.25823 -2.33280
C -3.31562 -2.19156 -2.42149
C -2.84554 -1.33760 -3.47621
C -3.21232 -.02257 -3.49091
C -.87326 -4.31913 -.71366
C -1.18508 -2.90252 -3.12179
C .12633 -3.17863 -2.67051
C .28925 -3.94797 -1.43992
C 2.64632 -3.31813 -1.40534
C 1.51915 -3.89137 -.72922
C .28656 -3.95432 1.42162
C -.87472 -4.32232 .69113
C .05073 1.64324 -4.05219
C -2.24918 .98665 -3.90449
C -.90771 .63454 -4.20818
C -1.47691 -1.72292 -3.82152
C 2.46074 -2.50233 -2.52325
C 1.17414 -2.31236 -3.10578
C .88582 -1.05603 -3.74755
C -.47422 -.75078 -4.08322
C 1.87475 .03320 -3.64495
C 1.43533 1.33314 -3.82903
C 3.14213 2.26726 -2.27463
C 2.00972 2.44005 -3.08773
C 3.25361 3.12960 -1.16127
C 3.78658 .96006 -2.24658
C 3.46437 -1.44972 -2.50724
C 3.14475 -.15731 -2.92362
C 4.66297 .68931 -1.17461
C 4.34328 -1.71249 1.41341
C 4.91299 -.64694 .73400
C 4.66046 .68425 1.18610
C 4.67852 1.53822 .00755
C 3.99361 2.72230 .00922
C 3.82331 -2.85512 .68508
C 3.82471 -2.85213 -.69142
C 4.34637 -1.70597 -1.41331
C 4.91477 -.64350 -.72785
C -1.19117 -2.91643 3.10451
C .12120 -3.19049 2.65512
C 2.64362 -3.32401 1.39444
C 1.51780 -3.89451 .71366
C 1.42771 1.31667 3.83611
C 1.86776 .01735 3.64757
C .87866 -1.07238 3.74313
C -.48210 -.76854 4.07698
C -1.48425 -1.73979 3.80856
C 2.45582 -2.51335 2.51572
C 1.16810 -2.32611 3.09641
C 3.25111 3.12456 1.17974
C 3.78219 .95051 2.25731
C 3.13760 2.25764 2.28925
C 2.00340 2.42675 3.10049
C 3.45944 -1.46066 2.50660
C 3.13911 -.17002 2.92805
