96 

C -4.20626 -1.63658 -.72968
C -4.88742 -.55264 -.14188
C -4.95673 .72581 -.77685
C -3.58045 -1.44678 -2.03304
C -3.75860 -.21964 -2.67060
C -4.43010 .88000 -2.04693
C -2.12178 -3.38001 -1.63764
C -2.42171 -2.27177 -2.43116
C -1.38483 -1.75639 -3.29822
C -1.57299 -.41975 -3.86531
C -2.72607 .32510 -3.53125
C -.46203 .32299 -4.27896
C -.83068 -3.95165 -1.61244
C .22498 -3.42101 -2.36783
C -.06028 -2.32459 -3.26253
C 2.38498 -1.84222 -3.36191
C 1.07358 -1.54937 -3.78747
C .85880 -.23844 -4.25037
C 2.63682 -2.87827 -2.37763
C 1.58530 -3.64534 -1.86248
C 1.76075 -4.14547 -.54367
C -3.95811 2.86815 -.09524
C -3.46045 3.04885 -1.44799
C -4.72438 1.75697 .23138
C -3.71784 2.09407 -2.40659
C -2.66708 1.72518 -3.33672
C -1.40874 2.39012 -3.34512
C -.35969 1.71293 -3.97149
C -3.52074 1.53666 2.38745
C -2.68630 2.66898 2.01699
C -4.52429 1.11545 1.49073
C -2.94165 3.30823 .80236
C -1.84609 3.83712 .00270
C -.51950 3.87633 .48133
C -.26374 3.47578 1.84808
C -1.34839 2.83527 2.60494
C -1.00340 1.99983 3.65643
C 2.13484 3.63088 1.34613
C 1.08984 3.31194 2.26700
C -1.08246 3.31406 -2.27374
C -2.12710 3.63350 -1.35261
C 1.00920 2.00029 -3.66337
C 1.35546 2.83512 -2.61174
C .27147 3.47648 -1.85473
C .52766 3.87624 -.48786
C 1.85429 3.83556 -.00922
C -4.79851 -.30257 1.28954
C -1.77156 .80495 3.95112
C -2.99403 .54602 3.32163
C -3.35220 -.81762 3.17895
C -4.23483 -1.23533 2.11256
C -.85572 -.23919 4.24308
C -1.07213 -1.54977 3.78016
C -2.38410 -1.84082 3.35475
C .06075 -2.32618 3.25503
C -.22600 -3.42196 2.36009
C .82885 -3.95359 1.60451
C .46565 .32082 4.27154
C 2.72952 .32064 3.52405
C 1.57565 -.42307 3.85781
C 1.38585 -1.75944 3.29067
C 2.42201 -2.27583 2.42350
C 2.12069 -3.38348 1.62986
C 1.41469 2.38731 3.33815
C .36492 1.71099 3.96436
C 2.67211 1.72091 3.32978
C -2.72855 -3.56497 -.32155
C -3.69905 -2.67545 .16194
C -3.73445 -2.47421 1.56382
C -2.63727 -2.87619 2.37016
C -1.58667 -3.64431 1.85474
C -1.76280 -4.14344 .53565
C .62300 -4.50115 .27134
C -.62553 -4.50016 -.27953
C 4.43407 .87401 2.04002
C 3.76139 -.22513 2.66324
C 3.58175 -1.45200 2.02550
C 4.96093 .71959 .76993
C 4.89012 -.55877 .13476
C 4.20752 -1.64214 .72223
C 3.96508 2.86357 .08868
C 3.46739 3.04440 1.44138
C 3.72328 2.08885 2.39969
C 4.72994 1.75140 -.23803
C 3.52619 1.53343 -2.39420
C 2.69331 2.66685 -2.02371
C 2.94940 3.30546 -.80894
C 4.52914 1.11052 -1.49746
C 4.23641 -1.23952 -2.11957
C 3.35443 -.82034 -3.18589
C 2.99804 .54375 -3.32853
C 1.77605 .80453 -3.95812
C 4.80160 -.30792 -1.29650
C 2.72735 -3.56865 .31376
C 3.69901 -2.68010 -.16950
C 3.73464 -2.47808 -1.57126
