96 

C -1.23327 3.51206 -2.33956
C -.01097 2.88059 -2.57843
C 3.43692 3.23054 -1.15156
C 3.64110 .71443 -2.31425
C 2.47718 1.44355 -2.54985
C 2.42764 2.79830 -2.03684
C 1.17088 3.51650 -2.03901
C 3.63890 -.71866 -2.31801
C -2.49254 -1.42523 -2.77191
C -2.47353 -2.76744 -2.39345
C 2.47284 -1.44320 -2.55750
C 1.24573 -.71384 -2.89733
C 1.24792 .71954 -2.89337
C .00069 1.44722 -2.93524
C -1.24419 -3.50172 -2.35805
C -2.46471 2.78161 -2.37871
C -.01984 -2.87280 -2.59370
C -.00376 -1.43763 -2.94307
C -1.23093 -.71905 -3.03240
C -1.22861 .73278 -3.02840
C -2.48787 1.44146 -2.76404
C 1.16013 -3.51489 -2.05744
C 2.41916 -2.80041 -2.05149
C 1.00586 -4.60125 -1.16904
C 3.42703 -3.24003 -1.16832
C 3.04505 3.97771 .02265
C 1.02005 4.59891 -1.14516
C 1.86636 4.64430 .02611
C -1.38937 4.56335 -1.36937
C -.27402 5.01725 -.69982
C -4.49336 1.17498 1.41852
C -4.21588 2.40143 .75962
C -2.63790 4.34211 -.66144
C -2.63605 4.33887 .72632
C -3.33852 3.28173 -1.36048
C -4.49689 1.18198 -1.36391
C -4.21778 2.40505 -.69961
C -3.64879 -.70982 -2.39543
C -3.64642 .72771 -2.39145
C -1.38528 4.55647 1.43138
C 1.02353 4.59292 1.19970
C -.27186 5.01351 .76056
C -3.33478 3.27502 1.42226
C -1.22647 3.50021 2.39572
C -.00341 2.86741 2.62743
C 1.17693 3.50597 2.08762
C 2.43371 2.78780 2.07797
C 3.44035 3.22455 1.19198
C 4.47178 2.33788 .74728
C 2.48462 1.43034 2.58364
C 3.64783 .70244 2.34107
C 4.66101 1.14625 1.41260
C -2.45794 2.76965 2.43511
C .00920 1.43214 2.97663
C 1.25631 .70461 2.92676
C -3.63976 .71537 2.44105
C -2.48002 1.42736 2.81349
C -1.21987 .71721 3.06983
C 4.65681 1.15343 -1.38621
C 5.17115 -.00851 -.68945
C 4.46957 2.34160 -.71427
C 5.17329 -.01213 .70826
C 4.65743 -1.17263 1.40644
C 4.65330 -1.16536 -1.39230
C 4.46239 -2.35644 -.72653
C 4.46451 -2.36021 .73498
C -1.22209 -.73470 3.06584
C .00481 -1.45274 2.96865
C 1.25411 -.72869 2.92281
C 2.48014 -1.45624 2.57589
C 3.64559 -.73062 2.33727
C 3.43041 -3.24611 1.17515
C 2.42500 -2.81090 2.06327
C -3.64195 -.72228 2.43705
C -2.48437 -1.43961 2.80555
C -2.46651 -2.77993 2.42016
C -1.23728 -3.51389 2.37700
C -.01232 -2.88599 2.61194
C 1.16606 -3.52535 2.06911
C -4.99845 .00666 -.66250
C -4.99678 .00314 .71229
C -4.22357 -2.39781 .74681
C -4.49708 -1.17398 1.41205
C -3.34505 -3.27745 1.40487
C -2.65155 -4.33607 -.68433
C -3.34894 -3.27000 -1.37789
C -4.22555 -2.39401 -.71241
C -4.50090 -1.16673 -1.37017
C -2.64957 -4.33984 .70344
C -.28745 -5.02173 .73436
C -.28955 -5.01794 -.72600
C -1.40353 -4.55745 -1.39332
C -1.39943 -4.56476 1.40742
C 3.03279 -3.99205 .00204
C 1.00931 -4.60728 1.17575
C 1.85208 -4.65512 .00201
