96 

C 4.61038 -1.97693 .13180
C 1.19998 -4.43134 .52572
C 2.46632 -3.81352 .51220
C 3.05383 -3.62318 -.75878
C 4.12463 -2.67934 -.95448
C -.93285 -4.68716 -.29096
C .46395 -4.62263 -.65863
C .87403 -3.94545 -1.84426
C 2.20273 -3.55007 -1.90486
C -1.87731 -4.20458 -1.14902
C -1.89980 -2.90177 2.78898
C -2.14693 -3.65713 1.63395
C -1.04810 -4.40288 1.12508
C 4.90784 .03341 -1.24396
C 4.23125 -.65249 -2.32853
C 5.05348 -.60504 -.02356
C 3.87259 -1.97978 -2.20111
C 2.60975 -2.41895 -2.71338
C -1.38169 1.43834 -3.52221
C .97951 .89572 -3.38672
C 1.65487 -1.52478 -3.22087
C 2.01836 -.12486 -3.31906
C 3.30864 .25976 -2.93208
C -.38259 .46802 -3.58405
C -2.15426 -1.26681 -3.16891
C -1.46149 -3.46748 -2.34534
C -.11049 -3.19561 -2.61563
C .24289 -1.92702 -3.20413
C -.77148 -.94711 -3.44048
C -2.46818 -2.53621 -2.64731
C 3.46488 3.31177 -.19441
C 4.30485 2.16879 -.09667
C 4.48134 1.41795 -1.27551
C 3.55053 1.55911 -2.35387
C 1.25362 2.23003 -2.93389
C 2.55278 2.53078 -2.33675
C 2.65129 3.52086 -1.32506
C -1.11953 2.76002 -3.07303
C .16193 3.14317 -2.67806
C 4.38915 1.47645 1.18931
C 4.70967 .10979 1.19316
C 2.74784 3.84466 .95969
C 2.75767 3.14916 2.13855
C 3.57050 1.94619 2.26277
C 1.50480 4.41773 .49179
C .30177 4.30595 1.23579
C -.88677 4.50198 .52150
C .26386 4.14339 -1.61171
C 1.47494 4.26333 -.91445
C -.90449 4.50235 -.89769
C 2.87007 1.04488 3.08094
C 2.99456 -.35780 2.90908
C 4.01266 -.80096 2.05644
C 3.91998 -2.07715 1.40617
C 1.79779 -2.50776 2.57960
C 2.82111 -2.90767 1.60388
C .63226 -.59113 3.70381
C 1.85488 -1.21470 3.17652
C -.50746 -1.35806 3.79162
C -.57088 -2.68199 3.24990
C .54206 -3.24728 2.60863
C .26549 -4.21995 1.61942
C 1.59078 1.64469 3.43989
C -.83458 1.47370 3.45689
C .46046 .87372 3.67857
C -3.21407 1.00813 2.93733
C -2.01042 .60916 3.52932
C -1.83151 -.77914 3.71560
C .27865 3.44223 2.41845
C 1.50933 2.92528 2.85093
C -2.14744 3.96707 .99771
C -2.18345 3.10879 2.11837
C -.92775 2.74303 2.78962
C -3.29411 2.25426 2.20858
C -4.72591 .73264 1.21136
C -4.08834 .06435 2.32235
C -3.75192 -1.30590 2.26864
C -2.68250 -1.71854 3.09572
C -4.99125 .02757 .06691
C -2.98661 3.74182 -.12150
C -3.95457 2.71016 -.11507
C -4.20027 2.08492 1.12877
C -3.31252 2.19121 -2.44695
C -2.32308 3.25218 -2.42037
C -2.21288 4.05589 -1.31481
C -4.68255 .62451 -1.23142
C -4.16031 1.93506 -1.33993
C -3.54430 -2.71427 -1.66974
C -4.36947 -1.66770 -1.36175
C -4.23854 -.41445 -2.08610
C -3.14519 -.20721 -2.96719
C -2.75612 1.11685 -3.18538
C -4.03537 -2.06735 1.05188
C -3.21562 -3.23021 .72086
C -3.08305 -3.58540 -.63513
C -4.69070 -1.38916 .00487
