96 

C -3.16501 3.76081 .68948
C -4.56304 .38506 -1.41057
C -4.47326 1.62546 -.73977
C -3.74531 2.64061 -1.39990
C -3.16125 3.76588 -.68534
C -3.42479 -1.33313 -2.47981
C -3.67635 .08359 -2.47546
C -2.68709 .98780 -2.89345
C -2.86815 2.31239 -2.46482
C -1.89870 -3.14740 -2.48205
C -2.18515 -1.83882 -2.90217
C .41457 4.57198 -1.37967
C -.82746 4.69208 -.71710
C -1.94754 4.15264 -1.38867
C -1.76704 3.23857 -2.45789
C -.49013 2.83564 -2.87953
C .56707 3.65288 -2.44884
C 2.20843 1.85713 -2.87497
C 1.91964 3.16244 -2.44651
C 3.44558 1.34844 -2.44892
C 1.36347 -.47918 -3.24936
C -1.33807 .50031 -3.25356
C 1.11227 .93551 -3.24443
C -.23848 1.42525 -3.24653
C .26393 -1.40419 -3.25599
C -1.08686 -.91444 -3.25795
C -.83154 4.68692 .74280
C -1.95558 4.14257 1.40326
C 1.68234 4.62592 -.66707
C 1.67856 4.62113 .70771
C .40664 4.56206 1.41217
C 2.62292 3.77131 -1.37593
C 3.65156 3.06825 -.70963
C 4.16728 1.93546 -1.37837
C .55317 3.63530 2.47561
C -.50656 2.81485 2.89351
C -1.78103 3.22068 2.46670
C -2.88200 2.29449 2.45985
C -2.70311 .96695 2.87980
C -3.68977 .06594 2.44912
C 1.90594 3.14484 2.47784
C .49758 -2.83810 2.87523
C 1.77439 -3.24093 2.45302
C 2.19255 1.83629 2.89805
C 1.09419 .91197 3.25391
C -.25670 1.40179 3.25152
C -1.35620 .47688 3.24458
C 2.87549 -2.31483 2.45984
C -3.43811 -1.35063 2.44473
C 2.69448 -.99033 2.88872
C 1.34548 -.50279 3.24917
C .24590 -1.42768 3.24229
C -1.10486 -.93781 3.23995
C -2.20101 -1.85940 2.87071
C 3.68377 -.08620 2.47078
C 3.43217 1.33051 2.47540
C 3.64764 3.06307 .75020
C 2.61527 3.76146 1.41577
C 4.15984 1.92538 1.41336
C -3.75299 2.63035 1.39205
C -4.57056 .37505 1.38134
C -4.47725 1.62018 .72015
C -4.84163 -.86379 .66759
C -4.83808 -.85891 -.70721
C -4.15980 -1.93775 1.37423
C -3.64403 -3.07059 .70570
C -2.61550 -3.77371 1.37212
C -.55964 -3.65539 2.44477
C -1.91223 -3.16488 2.44259
C -3.64017 -3.06549 -.75419
C -4.15237 -1.92792 -1.41759
C -2.60798 -3.76395 -1.41984
C -1.67509 -4.62841 .66311
C -1.67135 -4.62362 -.71173
C .83863 -4.68945 -.74741
C -.39956 -4.56462 -1.41649
C 1.96265 -4.14505 -1.40815
C 3.16837 -3.76834 .68018
C 1.95475 -4.15504 1.38373
C .83460 -4.69468 .71250
C -.40729 -4.57457 1.37544
C 3.17224 -3.76338 -.69462
C 4.57048 -.38770 1.40577
C 4.48061 -1.62801 .73475
C 3.75254 -2.64315 1.39474
C 4.57795 -.37737 -1.38601
C 4.84921 .86139 -.67203
C 4.84562 .85640 .70275
C 3.76019 -2.63275 -1.39709
C 4.48457 -1.62264 -.72511
C -.54601 -3.63778 -2.47989
C .51364 -2.81724 -2.89791
C 1.78818 -3.22306 -2.47146
C 2.88917 -2.29677 -2.46468
C 2.71039 -.96914 -2.88435
C 3.69713 -.06813 -2.45358
