96 

C .73528 4.26953 1.04821
C .60526 4.17682 -.34714
C -.70544 3.90613 -.89639
C -.78901 3.45212 -2.29366
C .38574 3.13000 -2.99167
C -1.96723 2.83656 -2.76096
C -.34672 3.97980 1.90876
C -1.61624 3.65596 1.41251
C -1.82303 3.67614 -.01826
C -3.94071 2.39844 .32829
C -3.05250 3.05914 -.54800
C -3.11684 2.67370 -1.89735
C -3.62882 2.26147 1.74008
C -2.48866 2.85688 2.28471
C -1.93307 2.22471 3.43165
C -1.93265 1.75926 -3.67523
C -.68812 1.18520 -4.04762
C .44548 1.96949 -3.81450
C 1.74365 1.37878 -3.66255
C .72352 -.84913 -3.74359
C 1.91121 .00630 -3.58347
C -3.10353 .93915 -3.42954
C -3.01020 -.42019 -3.54878
C -1.72139 -1.03540 -3.84536
C -.53678 -.25958 -4.04412
C .74739 -2.18455 -3.17952
C 1.96741 -2.67580 -2.66886
C -3.71375 -1.27925 -2.61217
C -4.62183 -1.55405 -.39744
C -4.47911 -.74127 -1.54178
C -3.83248 1.51964 -2.31316
C -4.66715 1.25172 -.07707
C -4.51993 .71513 -1.37930
C 3.16638 -1.85179 -2.59401
C 3.11664 -.49176 -2.90254
C 3.97277 .41612 -2.15608
C 3.98317 -2.36869 -1.54594
C 4.74101 -1.49327 -.77654
C 4.76680 -.10879 -1.11502
C 3.26024 -3.46001 -.92116
C 4.69794 -1.60150 .67873
C 3.95067 -2.59705 1.26619
C 3.28316 -3.59727 .45082
C -1.67902 -2.25841 -3.17742
C -.45436 -2.82251 -2.74345
C .79711 -4.03402 -.98835
C 1.99846 -3.62022 -1.63655
C 3.61719 1.83168 -2.08553
C 2.54075 2.28954 -2.86152
C 4.91639 .62329 .13756
C 4.51518 1.92264 .22864
C 3.92344 2.57891 -.92411
C 4.65894 -.27928 1.23425
C 3.06714 3.51462 1.01416
C 3.02720 3.56949 -.43721
C 1.82360 3.87073 -1.11633
C 1.68873 3.32334 -2.40490
C 1.95833 3.85784 1.73177
C .20185 3.33498 3.10317
C 1.60295 3.09163 2.89079
C -.54235 2.41304 3.77726
C 3.08331 -2.27086 2.36490
C 2.90147 -.96317 2.82129
C 3.75728 .07407 2.26174
C 3.36773 1.47067 2.37752
C 3.85259 2.38444 1.41865
C 1.62227 -.61295 3.45927
C 1.33765 .77826 3.69973
C 2.18260 1.82782 3.12999
C .03489 1.12791 4.09208
C 1.98477 -3.20306 2.33112
C -.36158 -3.60983 2.44285
C .74665 -2.88385 2.90892
C .55027 -1.57332 3.50915
C -.81503 -1.14307 3.74995
C -1.02622 .18681 4.08778
C -1.69466 -3.82949 -.79413
C -.45405 -3.68807 -1.57900
C -1.58578 -4.17178 .55189
C -.30187 -4.27907 1.18660
C .88170 -4.30659 .43915
C 2.06744 -3.97437 1.14054
C -3.62276 -2.95567 1.15899
C -3.88729 -2.76454 -.25601
C -2.92491 -3.15049 -1.21901
C -2.91592 -2.42743 -2.42517
C -2.49352 -3.63008 1.54521
C -4.80069 .38754 1.08469
C -4.02948 -1.78888 1.87571
C -4.77231 -.97196 .93429
C -2.25910 .88402 3.73151
C -1.71106 -3.13819 2.63818
C -1.96740 -1.90208 3.22796
C -3.20189 -1.21504 2.86144
C -3.30874 .22141 3.07167
C -4.09879 .99830 2.18923
