76

 C     0.1772286227     2.4801664899     2.7428983968
C     1.5119119255     2.0390534408     2.6606233539
C     2.3368349537     2.7168771385     1.716714156
C     3.5141052598     2.076670054     1.1746005466
C     3.8705457086     0.81862876     1.6222012539
C     0.7086497077     -0.2491029724     3.3702350598
C     1.8170984632     0.6652514876     3.0564008478
C     3.0454936555     0.1224060782     2.6032129375
C     0.9223734203     -1.6288346556     3.1850343538
C     2.1475776534     -2.143902621     2.6507951264
C     3.2001074535     -1.284684578     2.3637378973
C     -0.6807886471     0.2255390019     3.3735929263
C     -1.7903782887     -0.6877143853     3.060601506
C     -0.8951728709     1.6059119919     3.1939976595
C     -3.0204076217     -0.1432925043     2.6137908998
C     3.990566068     1.4339785817     -1.1463181619
C     4.390297953     0.1244014139     -0.6798195157
C     3.6124862736     2.4154074805     -0.2296516284
C     4.3918279423     -0.1655984311     0.689327167
C     3.9850376808     -1.4724654135     1.1573022966
C     3.8590285063     -0.8562909225     -1.610767469
C     3.4957983404     -2.1119213052     -1.1618507032
C     3.59703538     -2.4513277842     0.24203129
C     1.8327664563     3.2047631061     -1.7289578634
C     2.152206192     2.1177412023     -2.6330925813
C     2.5136313695     3.3122928102     -0.5256997796
C     3.1999964889     1.2514787413     -2.3498791472
C     3.0350814603     -0.1545379167     -2.5887714651
C     0.921634973     1.6109086955     -3.1628393204
C     0.6979939016     0.2326382356     -3.3472439424
C     1.8014259311     -0.6891291617     -3.0374561791
C     1.4884816968     -2.0608616546     -2.6405501441
C     0.1505864031     -2.4930143059     -2.7179470146
C     2.3122819754     -2.7442148595     -1.6996480855
C     -1.7178281215     3.5525985192     -0.6575058375
C     -0.3273229787     3.8199026583     -0.6272549045
C     0.4075938646     3.4264423538     -1.7809001044
C     -0.1448802248     2.4907603506     -2.7086929628
C     -1.4824854093     2.0583333843     -2.6279433225
C     -2.3028507709     2.73838381     -1.681660183
C     -3.8492755795     0.8501455613     -1.5937530224
C     -3.4844079257     2.1041989747     -1.1417734205
C     -0.9175716921     -1.6115898843     -3.1651350935
C     -0.6945949037     -0.23267747     -3.3455272057
C     -1.7968838776     0.687991843     -3.0285050399
C     -3.0289001984     0.1518226508     -2.5772043094
C     0.3686204703     3.8153078987     0.6661128381
C     1.7572928132     3.53858027     0.6954088796
C     -2.4756834769     3.3271325604     0.5628217112
C     -1.7955679242     3.2108345868     1.7656805889
C     -0.3689344316     3.4227551182     1.8183893488
C     -3.580526184     2.4386809855     0.2636487279
C     -2.1223052927     2.1228386772     2.6660293685
C     -3.1758806173     1.2646231412     2.3798014027
C     -3.9651964564     1.4566193058     1.1768925891
C     -3.9791303095     -1.441735939     -1.1368385398
C     -4.3771584879     -0.1338086903     -0.6643155469
C     -4.373696303     0.1513954246     0.7058369132
C     -3.5977212973     -2.4263654314     -0.2249948421
C     -1.8234787852     -3.2104555483     -1.733522846
C     -2.1462042916     -2.1202800148     -2.6326853012
C     -3.1929518026     -1.2550218432     -2.3426315915
C     -2.4999560589     -3.3222012501     -0.5281814557
C     1.7309848952     -3.5620191948     -0.6762266919
C     0.3406047639     -3.8294367335     -0.6418522308
C     -0.39850677     -3.4319392393     -1.7914312849
C     0.3911242748     -3.4408631073     1.8050025547
C     1.8175551407     -3.2287434002     1.7478440621
C     2.4932842889     -3.3408279885     0.5421121464
C     -1.7391830007     -3.5527632735     0.6893723063
C     -0.3506228585     -3.8293778356     0.6540522093
C     -3.8490336535     -0.8360848203     1.6333562257
C     -3.4942295862     -2.0925485475     1.1800643964
C     -2.3149921924     -2.7346494068     1.7156476162
C     -1.4866360225     -2.0601267781     2.6589157571
C     -0.151667414     -2.5015129159     2.7347914208


