84 

C -0.879190 -3.237690 -2.336390
C -2.036520 -3.164750 -1.497580
C -3.081390 -2.297150 -1.913950
C -4.006430 -1.773600 -0.988700
C -3.922270 -2.140390 0.360630
C -0.566910 -3.792730 0.430690
C -1.896080 -3.494490 -0.108120
C -2.902880 -3.024590 0.785480
C -0.355610 -3.600930 1.841930
C -1.361670 -2.961910 2.672030
C -2.581410 -2.662320 2.159490
C 0.571690 -3.794540 -0.415670
C 1.900620 -3.495070 0.122830
C 0.360170 -3.607310 -1.827580
C 2.907380 -3.028680 -0.772240
C -4.443700 0.564250 -0.380400
C -4.369230 0.192400 1.032150
C -4.271560 -0.388020 -1.353760
C -4.118100 -1.120360 1.397070
C -3.220770 -1.388880 2.473190
C -3.732610 1.256960 1.740200
C -2.783180 1.014890 2.753520
C -2.519650 -0.363840 3.138720
C -0.316270 0.297020 4.044160
C -1.235550 -0.716150 3.767730
C -0.704070 -2.036300 3.570200
C -2.572480 3.284160 0.987700
C -3.839750 1.879130 -0.531220
C -3.559590 2.351310 0.791930
C -1.685840 3.163740 2.132780
C -0.557490 1.668600 3.632680
C -1.755880 2.039430 2.981960
C -1.832120 3.783510 -0.126940
C -1.958330 3.203800 -1.406170
C -3.000840 2.204960 -1.614760
C -2.849360 1.202490 -2.680200
C -3.480460 -0.075210 -2.526290
C -1.713380 1.247920 -3.494340
C -0.546900 4.198950 0.396620
C 0.557170 4.196940 -0.407650
C 0.441800 3.732120 -1.777340
C -0.774410 3.209100 -2.267120
C -0.673510 2.239130 -3.291700
C 0.681520 2.249470 3.287520
C 0.783480 3.215830 2.259570
C -0.432150 3.738640 1.768040
C -1.091170 0.053910 -3.983170
C -1.600990 -1.213640 -3.634810
C -2.829710 -1.258670 -2.925810
C -0.668390 -2.270400 -3.427780
C 0.322460 0.283370 -4.041010
C 1.241470 -0.729380 -3.761730
C 0.709100 -2.048410 -3.560510
C 2.586210 -2.670920 -2.147660
C 1.366240 -2.971460 -2.660000
C 3.740660 1.248090 -1.740040
C 2.790770 1.003470 -2.752640
C 2.526070 -0.375980 -3.133710
C 3.226560 -1.398930 -2.464950
C 0.565140 1.655940 -3.634270
C 1.695330 3.155030 -2.139810
C 1.764150 2.027850 -2.984880
C 4.451140 0.561410 0.383220
C 4.376810 0.185480 -1.028440
C 4.124070 -1.127830 -1.389550
C 4.277950 -0.387420 1.359740
C 2.582330 3.278440 -0.994720
C 3.848080 1.877180 0.529460
C 3.568540 2.345430 -0.795350
C 1.720160 1.257920 3.493780
C 3.486790 -0.070090 2.531180
C 2.856300 1.208460 2.680080
C 3.008930 2.207170 1.611370
C 1.967430 3.206290 1.398900
C 1.842080 3.781990 0.117930
C 0.673120 -2.259730 3.438870
C 2.835050 -1.251520 2.934740
C 1.606160 -1.202870 3.643130
C 1.097060 0.066400 3.987160
C 3.926830 -2.144140 -0.349780
C 4.011340 -1.773850 0.998560
C 3.086250 -2.293610 1.925890
C 2.041010 -3.161610 1.511510
C 0.883630 -3.230770 2.350370
