84 

C -3.362140 -1.412050 -2.013760
C -3.788470 -0.069390 -1.832420
C -1.474890 -3.576270 -1.889360
C -1.474110 -2.735720 -2.977470
C -2.441160 -1.645380 -3.055580
C -0.232580 -3.999430 -1.320410
C -0.231500 -2.292450 -3.530110
C 0.999410 -2.580180 -2.909280
C 0.999000 -3.471770 -1.755090
C 3.147560 -2.488660 -0.995030
C 2.086650 -3.393590 -0.772910
C 1.837140 -3.755690 0.571440
C -1.823070 -0.567060 -3.750790
C -2.072510 0.777340 -3.388930
C -3.133840 0.999150 -2.484050
C -3.133960 2.153880 -1.591740
C -2.073310 3.085630 -1.605990
C -1.824270 3.775490 -0.396470
C -0.492790 -0.999640 -4.132870
C -0.985110 1.759470 -3.467650
C -0.985760 2.913830 -2.576400
C 0.507940 -0.078750 -4.251590
C 0.245780 1.324620 -3.995810
C 1.837890 -0.400550 -3.772340
C 3.147830 -1.596350 -2.150320
C 2.087090 -1.609980 -3.081900
C -3.788600 1.793610 -0.392830
C -2.441430 3.374900 0.822990
C -3.361920 2.307970 0.860900
C -1.473250 3.574710 1.897180
C -1.472540 2.734140 2.985230
C 0.506860 4.137280 -0.996480
C -0.493820 4.254590 -0.075150
C -0.231250 3.998080 1.327830
C 0.245030 3.534910 -2.289430
C -4.235630 0.417060 -0.536250
C -2.439990 1.643860 3.064240
C -3.361530 1.410460 2.023400
C -3.788660 0.067610 1.842890
C -4.235950 -0.419170 0.546970
C -0.491570 0.998340 4.140320
C -1.822190 0.565600 3.759390
C -2.072510 -0.778980 3.398110
C -3.134340 -1.001200 2.494080
C 0.509180 0.077750 4.258620
C -0.229940 2.291160 3.537510
C 1.000970 2.579430 2.916690
C 1.000470 3.471020 1.762410
C -2.442350 -3.376710 -0.814600
C -3.362600 -2.309820 -0.851410
C -3.788950 -1.795790 0.402730
C -3.134720 -2.156200 1.601420
C -2.073780 -3.087650 1.614460
C -1.824730 -3.777230 0.404590
C 0.506610 -4.137880 1.003520
C -0.494330 -4.255940 0.082600
C 0.246570 -1.325410 4.002650
C -0.985070 -1.760920 3.475670
C -0.985920 -2.915250 2.584310
C 0.245090 -3.535580 2.296530
C 2.456450 -0.819090 3.379720
C 1.488400 -1.894100 3.579890
C 1.487480 -2.982450 2.739800
C 3.803600 0.398360 1.797760
C 3.376820 -0.855770 2.312890
C 1.837540 3.755670 -0.564630
C 2.087810 3.393710 0.779870
C 3.149350 2.489500 1.002090
C 3.149580 1.596990 2.157540
C 2.088730 1.609820 3.089270
C 1.839220 0.400140 3.779500
C 1.487700 1.893860 -3.573470
C 1.487250 2.982330 -2.733310
C 3.376270 2.019130 -1.409610
C 2.455100 3.060700 -1.643340
C 3.803460 1.838100 -0.066690
C 4.249850 -0.541170 -0.414500
C 3.802340 -0.397400 -1.791040
C 3.376110 0.856430 -2.306460
C 2.455330 0.819090 -3.373260
C 4.250580 0.542250 0.421050
C 2.454990 -3.060160 1.649690
C 3.376010 -2.018390 1.416030
C 3.802470 -1.837070 0.073150
