84 

C 1.909410 0.460660 -3.935100
C 2.245510 -0.934470 -3.667500
C 0.620070 0.805210 -4.279330
C 1.273670 -1.907830 -3.758730
C 1.213120 -2.936670 -2.759810
C -0.545580 4.129060 0.587030
C 0.368610 3.850820 -0.450370
C 0.029040 1.979650 -3.703430
C 2.633900 1.283200 -3.008210
C 2.030860 2.362860 -2.329810
C 0.670560 2.726640 -2.693000
C -0.163310 3.473420 -1.750360
C 3.552730 0.402130 -2.325110
C 2.566560 2.743120 -1.021820
C 1.738120 3.484910 -0.084970
C 4.050840 0.755460 -1.109800
C 3.657380 2.009630 -0.509910
C 3.177090 -0.970270 -2.576140
C 3.055950 -1.890540 -1.514130
C 2.030380 -2.917250 -1.610020
C -1.391320 1.723450 -3.643810
C -1.564070 3.405840 -1.902710
C -2.166250 2.417110 -2.767480
C -1.957920 3.921380 0.437760
C -2.462100 3.563550 -0.794370
C -3.647380 -1.241250 1.857900
C -3.960680 0.058550 1.608220
C -3.491340 2.532500 -0.890200
C -2.453280 3.269050 1.646290
C -3.425480 2.295980 1.555780
C -3.959360 1.917060 0.251120
C -3.309990 1.109720 2.355660
C 1.039060 3.449460 2.296040
C -0.233410 3.789340 1.956390
C -1.345950 3.075130 2.538680
C -1.142080 1.863920 3.232910
C -2.167690 0.837720 3.137540
C 2.070650 3.429800 1.284790
C 3.889070 1.866110 0.899100
C 3.103490 2.568890 1.787430
C -3.226820 1.740310 -2.057330
C -4.172500 0.497610 0.248210
C -3.795560 -0.317510 -0.839580
C -3.301860 0.331380 -2.043410
C -2.468080 -0.414930 -2.986620
C -1.634240 0.315100 -3.859010
C -0.409280 -0.225380 -4.375630
C -2.133350 -1.805170 -2.719850
C -0.993150 -2.347820 -3.348180
C -0.091960 -1.543050 -4.122890
C -3.528680 -2.174470 0.761450
C -2.630270 -2.458190 -1.507990
C -3.458780 -1.716570 -0.570950
C -0.174520 -3.329290 -2.673870
C -0.636250 -3.936090 -1.547670
C -1.942410 -3.594720 -1.033150
C -2.179730 -2.874020 2.548810
C -2.713970 -3.253050 1.244140
C -1.928710 -3.956110 0.355830
C -0.890120 -3.218990 2.892910
C 1.269560 2.376750 3.236420
C 0.227180 1.498070 3.598200
C 0.562340 0.108230 3.865250
C -0.470050 -0.924810 3.769150
C -1.830700 -0.561030 3.406510
C -2.666320 -1.562210 2.869000
C -0.060550 -2.258930 3.563910
C 2.925320 0.599350 3.248600
C 2.607580 1.916950 2.995680
C 2.257060 -1.603320 3.265820
C 1.911540 -0.285590 3.747760
C 1.297560 -2.563240 3.176210
C 4.225200 0.470660 1.166690
C 3.255270 -1.487190 2.227940
C 3.757250 -0.144730 2.307900
C -0.562770 -4.320800 0.719920
C 0.264100 -4.183850 -0.445170
C 1.533600 -3.570400 -0.398310
C -0.058320 -3.962920 1.951950
C 1.283130 -3.460660 2.043970
C 2.065740 -3.192710 0.901360
C 3.098130 -2.159500 0.997740
C 3.591740 -1.510430 -0.206130
C 4.200420 -0.244230 -0.077670
