84 

C -4.038140 0.790730 -1.206490
C -4.223610 0.073350 0.000840
C -4.040690 0.797270 1.204530
C -3.530610 2.113870 -1.210010
C -3.186410 2.776050 -0.006120
C -3.532670 2.120440 1.201040
C -3.993410 -1.379090 0.004700
C -3.596980 -2.004560 1.212210
C -3.531520 0.123830 -2.402580
C -3.317340 -1.226120 -2.398970
C -3.593810 -2.010430 -1.198960
C -1.647330 3.126120 -2.409990
C -2.709690 2.265940 -2.408030
C -2.589830 0.989750 -3.056600
C -1.328280 3.905330 1.197190
C -2.043490 3.701400 -0.008280
C -1.326020 3.898810 -1.213740
C -1.873010 -3.008700 -2.393210
C -2.701820 -3.111570 -1.195410
C -2.171530 -3.628710 0.012040
C -2.705020 -3.105980 1.215750
C -0.596780 -3.498020 -2.390860
C 1.669350 -3.138970 -2.389660
C 0.448080 -2.759430 -3.044270
C 2.731540 -2.278760 -2.390610
C -0.424390 2.743570 -3.060260
C -0.215530 1.428880 -3.530250
C -1.347500 0.512360 -3.528570
C -1.119460 -0.925810 -3.524640
C -2.153360 -1.761650 -3.049040
C 1.144480 0.907500 -3.527480
C 1.372350 -0.530780 -3.523520
C 0.240400 -1.447290 -3.522260
C 2.613440 -1.006070 -3.046620
C -0.053960 -4.127210 -1.190420
C -0.798630 -4.155500 0.014510
C -0.056910 -4.122370 1.220800
C -0.602520 -3.486950 2.416790
C -1.878580 -2.997030 2.414370
C 2.060360 -3.702030 0.016370
C 1.342900 -3.900260 1.221630
C 1.345670 -3.905480 -1.189660
C -3.536330 0.136490 2.404740
C -3.322460 -1.213690 2.408450
C -2.159720 -1.746150 3.063010
C 0.441160 -2.744770 3.068200
C 1.364510 -0.513020 3.537340
C 0.232810 -1.429700 3.538490
C -1.126720 -0.907720 3.535810
C 2.170460 1.761620 3.057940
C 1.136550 0.925590 3.533020
C -0.223010 1.447510 3.530130
C -1.354610 0.530790 3.531800
C -2.595730 1.006130 3.055350
C 2.725990 -2.267200 2.417390
C 1.663810 -3.127620 2.418250
C 2.606590 -0.990780 3.066330
C 3.549300 -2.120320 -1.191410
C 3.202940 -2.776370 0.015430
C 3.546870 -2.114580 1.219720
C -2.713980 2.278970 2.399290
C -1.651790 3.139330 2.397490
C -0.430580 2.759800 3.052100
C 2.719300 3.111470 1.204260
C 1.890390 3.008740 2.401750
C 0.614270 3.498330 2.398670
C 2.722400 3.105080 -1.207120
C 2.188860 3.627980 -0.003590
C 3.548290 -0.124440 2.412810
C 3.614190 2.003730 -1.202630
C 4.010630 1.378680 0.005370
C 3.611340 2.010230 1.208700
C 3.334500 1.225720 2.408700
C 3.340220 1.213200 -2.399220
C 3.553730 -0.136850 -2.395130
C 4.057190 -0.797380 -1.194220
C 4.240370 -0.073740 0.009700
C 4.054720 -0.791360 1.216880
C 0.619590 3.485510 -2.409010
C 1.896020 2.996170 -2.406060
C 2.177650 1.745620 -3.054570
C 0.071430 4.127050 1.197910
C 0.815880 4.154510 -0.006880
C 0.073820 4.120710 -1.213070
