84 

C 1.394510 -3.058050 2.237540
C 2.284840 -2.008540 2.544740
C 3.466540 -1.945460 1.774950
C 4.227390 -0.721040 1.666560
C 3.784890 0.403200 2.335270
C -0.009800 -2.980040 2.598220
C -1.933270 -1.625940 3.048060
C -0.549180 -1.796410 3.168210
C 0.304300 -0.632600 3.368820
C 1.752980 -0.788710 3.161200
C 2.544600 0.354220 3.087420
C 4.732510 0.627710 -0.318150
C 4.305730 1.810020 0.399530
C 4.733800 -0.614140 0.315730
C 3.873720 1.704140 1.712060
C 2.733020 2.483000 2.157230
C 2.101880 3.419920 1.320070
C 0.761410 3.766780 1.651080
C -2.528860 -0.320900 3.099280
C -1.737210 0.822510 3.163200
C -0.287770 0.667430 3.366240
C 0.565280 1.829810 3.155310
C 1.949000 1.658680 3.030260
C 0.024000 3.009730 2.579760
C 3.867540 -1.690130 -1.711900
C 3.776830 -0.389270 -2.334640
C 4.304250 -1.796220 -0.400780
C 4.221820 0.734870 -1.667210
C 3.461010 1.959480 -1.773580
C 2.276960 2.023010 -2.539650
C 1.387590 3.072620 -2.229560
C 2.506080 3.482210 -0.083470
C 3.551450 2.649080 -0.522060
C 1.516900 3.826660 -1.048400
C 0.754660 -3.752060 -1.640540
C 2.096680 -3.405570 -1.314380
C 2.725190 -2.468650 -2.153620
C 1.938010 -1.644150 -3.023680
C -0.299670 -0.652260 -3.351170
C 0.553820 -1.814830 -3.143550
C 0.014080 -2.994640 -2.566180
C -2.539950 0.335890 -3.075230
C -1.748480 -0.807280 -3.142160
C 1.742410 0.803320 -3.153940
C 2.533930 -0.339830 -3.082690
C -0.018260 2.994780 -2.585060
C -0.560170 1.811230 -3.152670
C 0.292750 0.647540 -3.356240
C -1.944090 1.640630 -3.026650
C 2.505690 -3.467990 0.087770
C 3.552680 -2.635080 0.523110
C -0.180140 -4.255770 -0.640940
C 0.184260 -4.252400 0.680600
C 1.519680 -3.812270 1.056060
C -1.515400 -3.817620 -1.018830
C -2.501490 -3.467940 -0.052170
C -3.548400 -2.637520 -0.491950
C -2.280760 -2.023100 -2.517780
C -1.390250 -3.070440 -2.204540
C -3.462290 -1.955500 -1.747720
C -2.092750 -3.397840 1.349600
C -0.750780 -3.742940 1.677130
C -2.720930 -2.455610 2.183470
C -4.729390 -0.615200 -0.296410
C -4.299980 -1.793030 0.427210
C -3.863290 -1.679070 1.737490
C -4.728220 0.630780 0.329360
C -3.869000 1.694050 -1.708090
C -3.780240 0.389260 -2.322600
C -4.223070 -0.730570 -1.646460
C -4.301000 1.808300 -0.396160
C -0.755810 3.757470 -1.661070
C -2.096730 3.412390 -1.327940
C -2.728440 2.470230 -2.158930
C -1.510800 3.832440 1.037960
C -0.176940 4.270340 0.654790
C 0.182860 4.266790 -0.667990
C -3.545720 2.652650 0.519620
C -2.500600 3.482870 0.075290
C -3.771960 -0.374150 2.351720
C -4.216810 0.746020 1.677360
C -3.455450 1.970910 1.775390
C -2.271270 2.038510 2.540730
C -1.381600 3.085610 2.223460
