84 

C -3.574700 0.178000 2.346360
C -3.996740 -0.581610 1.231790
C -4.305730 0.140360 0.049420
C -3.297260 1.567590 2.232130
C -3.426430 2.244900 0.997510
C -4.027130 1.522280 -0.065500
C -3.552250 -1.978780 1.111870
C -3.457890 -2.554230 -0.200950
C -2.649820 -0.381750 3.326560
C -2.211220 -1.680050 3.186900
C -2.705710 -2.505710 2.098400
C -1.731290 0.631060 3.731520
C -0.836580 -1.993840 3.411170
C 0.112150 -1.004710 3.699770
C -0.354530 0.363020 3.878730
C -1.325970 2.876480 2.855320
C -2.208540 1.875600 3.151780
C 0.079340 2.699550 3.141210
C 0.571350 1.470670 3.655080
C 1.920110 1.183970 3.410270
C -2.187930 3.595810 -0.678560
C -2.471260 3.315000 0.675060
C -1.450070 3.619210 1.612560
C -1.665950 -3.438600 1.765590
C -1.510820 -3.912530 0.448700
C -2.453180 -3.471190 -0.532180
C -0.193840 -4.248040 0.017760
C -0.514740 -3.133540 2.572310
C 0.778980 -3.349340 2.104620
C 0.912190 -4.041760 0.854580
C 3.078050 -3.015910 0.437950
C 2.052810 -3.792130 -0.002960
C 2.402830 -0.188840 3.328700
C 1.509180 -1.271720 3.330510
C 1.843790 -2.441250 2.536620
C 3.030060 -2.418600 1.769610
C 0.228440 -4.010910 -1.374400
C -0.668510 -3.416560 -2.311350
C -2.021820 -3.207910 -1.916960
C -0.124020 -2.534110 -3.266360
C 1.260650 -2.165290 -3.221550
C 2.115640 -2.652470 -2.232020
C 1.590630 -3.674870 -1.371590
C -0.867540 -1.397950 -3.724380
C -2.146760 -1.117320 -3.239100
C -2.755530 -2.117150 -2.410010
C -3.716550 -1.752580 -1.388670
C -4.121850 -0.457250 -1.271930
C -1.621050 1.355720 -3.395830
C -2.557020 0.286430 -3.080060
C -3.598130 0.559590 -2.171100
C -1.805750 2.611030 -2.778750
C -2.781100 2.803700 -1.754540
C -3.665950 1.793490 -1.457480
C 0.078100 -0.337040 -4.018840
C 0.789790 1.919450 -3.612950
C -0.272390 1.023930 -3.860430
C 3.737690 -2.081250 -0.467590
C 3.202890 -1.790440 -1.738150
C 3.343140 -0.434580 -2.251750
C 2.383950 0.065410 -3.244450
C 1.374040 -0.804790 -3.714800
C 2.102150 1.445850 -3.312190
C 3.616070 1.916290 -1.454370
C 2.695700 2.372190 -2.362650
C 1.709720 3.327850 -1.962530
C 0.578040 3.132920 -2.846570
C -0.682210 3.458780 -2.433890
C 4.326770 -1.073140 0.354930
C 4.469860 0.212990 -0.137880
C 4.018410 0.516320 -1.459440
C 3.765880 1.167920 2.012840
C 3.581680 -0.179920 2.529010
C 3.880450 -1.279040 1.733480
C 4.192170 1.362870 0.718090
C 0.805490 3.407330 2.152270
C 2.098030 3.009220 1.762050
C 2.706130 1.994100 2.542830
C -0.884610 3.982870 -1.096070
C 1.538630 3.682000 -0.610650
C 0.189680 4.060030 -0.176510
C -0.143160 3.957530 1.191230
C 3.574090 2.389960 -0.099910
C 2.503260 3.177990 0.363650
