84 

C 4.189460 -1.414740 -0.675420
C 3.939950 -0.685720 -1.917600
C 4.397890 -0.720170 0.503970
C 3.939120 0.690380 -1.923030
C 2.937540 1.393120 -2.677730
C 1.563880 -3.323310 -2.149300
C 3.365260 -2.582190 -0.670860
C 2.735690 -2.647420 -1.982380
C 0.537880 2.776220 -3.023770
C 0.616700 1.450970 -3.501320
C 1.868840 0.724720 -3.312350
C 1.869910 -0.731250 -3.306770
C 2.939130 -1.394490 -2.667020
C 0.541480 -2.781610 -3.002830
C 0.618850 -1.459930 -3.490350
C 0.938980 -3.978220 -1.013430
C 1.447320 -3.785750 0.293840
C 2.679930 -3.008720 0.483400
C 2.883240 -2.266270 1.721420
C 3.766700 -1.169240 1.706640
C 0.515140 -3.861280 1.349930
C -1.865550 -2.671070 -2.752610
C -0.695210 -3.344970 -2.539090
C -0.459390 -4.016940 -1.263810
C -1.396180 -3.929360 -0.211820
C -0.873720 -3.968840 1.107900
C -1.838930 -1.399410 -3.421010
C -1.841070 1.387960 -3.431650
C -0.625600 -0.734560 -3.701420
C -0.626710 0.722620 -3.706960
C 0.709660 -3.095290 2.576460
C 1.842300 -2.284080 2.756440
C 1.680650 -1.154690 3.600330
C 2.507000 0.019520 3.431990
C 3.515910 0.016980 2.513340
C -2.740740 -2.658080 1.992410
C -1.557110 -3.306690 2.207010
C -0.563440 -2.713870 3.073070
C -0.766490 -1.436210 3.655590
C 0.391080 -0.708520 3.984340
C -2.893380 -2.641520 -1.716770
C -2.663390 -3.225050 -0.446940
C -3.326860 -2.632090 0.655750
C 4.188140 1.427910 -0.686150
C 4.396570 0.741320 0.498280
C 3.764670 1.197710 1.697450
C 1.679310 1.194250 3.590870
C 0.707120 3.127400 2.552860
C 1.839820 2.317900 2.738490
C 2.880490 2.294070 1.703580
C 2.677180 3.028370 0.460250
C 3.363220 2.594990 -0.690710
C -2.998350 -1.381520 2.633440
C -2.009820 -0.710590 3.379030
C -2.010510 0.747830 3.373470
C -0.767610 1.475520 3.644630
C 0.390390 0.750400 3.978540
C -0.565480 2.749060 3.052700
C 0.512010 3.884560 1.320530
C 1.444190 3.803310 0.264880
C 0.935370 3.987110 -1.043480
C 1.560470 3.324690 -2.174500
C 2.733020 2.650810 -2.002510
C -2.742610 2.684880 1.972290
C -1.559320 3.335270 2.182170
C -0.876680 3.989680 1.077890
C -1.399720 3.941530 -0.241600
C -0.463410 4.023020 -1.294150
C -3.896840 -0.674540 1.775720
C -3.897450 0.699640 1.770440
C -2.999450 1.413090 2.622970
C -3.597240 -1.418290 -1.849540
C -4.105480 -0.732740 -0.719630
C -4.036200 -1.412300 0.521310
C -3.599210 1.416320 -1.860450
C -3.003050 0.678440 -2.970260
C -3.002010 -0.688170 -2.964990
C -4.037070 1.427760 0.510390
C -4.106320 0.738770 -0.725260
C -0.699370 3.341490 -2.564280
C -3.328710 2.648910 0.635670
C -2.666510 3.234520 -0.471520
C -2.896810 2.641470 -1.736900
C -1.869130 2.664570 -2.772760
