54
Modified xyz file
 C            1.60526389        0.07081160        3.81499337
 C            0.76924045       -1.09377029        3.58519718
 C            1.39432578       -1.90035260        2.55445655
 C            2.65586752        0.06872300        2.81205498
 C            2.52289798       -1.14542131        2.02658748
 C            2.62409720        1.34696283        2.12898861
 C            0.78910647        1.24854934        3.58792350
 C            1.50425210        2.11227963        2.66572856
 C           -0.58877245       -0.63867638        3.36889847
 C           -0.54896200        0.80841915        3.22344155
 C           -1.38972944       -1.37241958        2.51262873
 C            0.58742409       -2.59775068        1.65935926
 C           -0.80481005       -2.47665571        1.76022098
 C            1.15882901       -2.98130885        0.44976369
 C            2.71150655       -1.09925653        0.64572016
 C            2.20956134       -2.15025640       -0.11696358
 C            2.88443890        1.37350480        0.76392468
 C            2.98948449        0.12069781        0.02339362
 C            2.20262087        2.33952261       -0.08399205
 C            0.75096835        2.90597511        1.81124985
 C            1.22540112        3.16042422        0.46147702
 C           -1.17903137        1.42335408        2.13855426
 C           -0.67730838        2.65117440        1.71099150
 C           -2.27122432       -0.66481656        1.60589494
 C           -2.00956061        0.66934837        1.29330171
 C           -1.65566774       -2.68858259        0.59394163
 C           -2.61864402       -1.59571171        0.54823521
 C            0.31673699       -3.44216429       -0.63842142
 C           -1.10701830       -3.18011248       -0.58433245
 C            1.89432612       -1.94121322       -1.52153467
 C            0.83317641       -2.86992302       -1.87121160
 C            2.51858071        0.36706356       -1.33272804
 C            1.98947876        1.72187474       -1.38653092
 C            1.87560341       -0.64677097       -2.03589166
 C            0.82738389        1.97239898       -2.11605313
 C            0.06559931        3.50558585       -0.33834863
 C           -1.12113353        3.21002212        0.45515728
 C           -0.11805773        2.88136377       -1.63759426
 C           -2.46515200        1.19190805        0.07151400
 C           -2.01470268        2.43257901       -0.37358745
 C           -1.53345189        2.56155546       -1.73879089
 C           -3.03562882       -1.09043309       -0.67291490
 C           -3.08024993        0.34971677       -0.85646965
 C           -1.50083143       -2.60471964       -1.86112564
 C           -0.29019876       -2.38570940       -2.64705409
 C           -2.54056865       -1.67973960       -1.90787133
 C            0.95800054       -0.30424783       -3.03146081
 C            0.44890712        1.05815268       -3.09570564
 C           -0.13658328       -1.20746499       -3.36603295
 C           -1.94994494        1.63517644       -2.68363670
 C           -2.90023762        0.61349608       -2.27592313
 C           -2.52610397       -0.63594196       -2.91938226
 C           -0.94314471        0.99577477       -3.51153914
 C           -1.30636077       -0.40299554       -3.66850182
