54
Modified xyz file
 C            1.42717687        0.08074006        4.05806185
 C            0.60821991       -1.11785793        4.06430837
 C            1.39146781       -2.18671851        3.47189994
 C            2.58541076       -0.18454748        3.21996265
 C            2.64755924       -1.61349426        3.00630321
 C            2.51105739        0.70201421        2.06834501
 C            0.65794908        1.13735309        3.42461993
 C            1.43061590        1.64145979        2.31357280
 C           -0.67797913       -0.78146961        3.47902065
 C           -0.66847666        0.63456391        3.13794511
 C           -1.28021865       -1.67386315        2.60207868
 C            0.82352471       -2.95671013        2.37717285
 C           -0.49888625       -2.74920466        1.99755516
 C            2.88301858       -2.09649058        1.66250633
 C            1.83805820       -3.05831692        1.34801815
 C            2.68353685        0.20881324        0.76737737
 C            2.94050406       -1.14787937        0.55940490
 C            2.17932795        0.96418935       -0.29972549
 C            0.74979583        2.11596553        1.20755591
 C            1.43435084        2.10718420        0.00787294
 C           -1.28583986        1.04961105        1.95759700
 C           -0.64341958        2.00561083        1.15444500
 C           -2.16559313       -1.14984854        1.57875228
 C           -2.25722265        0.22566052        1.38714061
 C           -0.86943070       -2.82924847        0.58843792
 C           -2.05664345       -2.00652614        0.40986558
 C            1.45852576       -2.84616547       -0.03748661
 C            2.32344506       -1.80606235       -0.57471686
 C            0.11322653       -2.84710135       -0.40246444
 C            2.01201230        0.35449291       -1.55349909
 C            1.84163683       -1.02922729       -1.61842321
 C            1.58157308        1.13087444       -2.62986610
 C            0.90363203        2.87189018       -1.01462299
 C            1.22898142        2.51107290       -2.37460354
 C           -1.29124833        2.48330501        0.00742013
 C           -0.52246778        3.14303730       -0.96174066
 C           -2.91314221        0.66589392        0.24657203
 C           -2.53151713        1.93871915       -0.33180719
 C           -2.33805981       -1.45465441       -0.83557919
 C           -3.06920608       -0.26808416       -0.85879574
 C           -0.20485851       -2.36614042       -1.66832101
 C            0.77488297       -1.53916683       -2.35266306
 C           -1.51256904       -1.77640408       -1.91394362
 C            0.57778649        0.58767788       -3.53480604
 C            0.06449318       -0.67683853       -3.27862070
 C           -1.36430212       -0.85336636       -3.03434690
 C            0.09476496        2.86196460       -3.21115013
 C           -0.99258978        3.26432404       -2.33360996
 C           -0.32750560        1.66058706       -3.90809621
 C           -2.98025199        1.90848814       -1.71662290
 C           -3.15539612        0.51118929       -2.08108351
 C           -2.23807045        0.22160092       -3.16432722
 C           -2.17182317        2.53332542       -2.74158158
 C           -1.74981641        1.49377808       -3.67130838
