54
Modified xyz file
 C            1.10422524       -0.09213755        3.91089605
 C            2.34869649       -0.35096820        3.20995207
 C            2.24722533       -1.67273856        2.61201343
 C            0.25166326       -1.25901973        3.73749542
 C            0.86132145       -2.09439152        2.72257017
 C           -1.09791077       -0.79079198        3.52836890
 C            0.31831307        1.07804276        3.55922789
 C           -1.06980628        0.66477036        3.51663571
 C            0.78781274        1.96721577        2.59832365
 C            2.78279134        0.56490761        2.17092867
 C            2.06189201        1.73125739        1.92890636
 C            2.85127854       -1.61507720        1.29235617
 C            3.25489720       -0.23618423        1.05250512
 C            2.25757711       -2.33847712        0.26570193
 C            0.16145121       -2.41266831        1.55592424
 C            0.89906211       -2.82958725        0.44641002
 C           -1.80458699       -1.21695483        2.33753338
 C           -1.19069518       -2.05602437        1.41022867
 C           -1.90807235        1.10874262        2.41605104
 C           -2.54923020       -0.06913421        1.85233145
 C           -0.13226733        2.53747430        1.62164499
 C           -1.45917848        2.10338206        1.55039475
 C            1.95567317        2.24692051        0.57235905
 C            0.61307206        2.77117099        0.39104828
 C            3.19927937        0.28274731       -0.23718317
 C            2.56678168        1.57342266       -0.47304393
 C            2.37326139       -1.86771753       -1.10440893
 C            2.85771605       -0.58788027       -1.35218858
 C            0.27903683       -2.90931126       -0.86342248
 C            1.21168414       -2.35338175       -1.83430904
 C           -1.82269187       -2.20334165        0.17701578
 C           -1.07834680       -2.65875215       -0.98437817
 C           -2.94734383       -0.03484706        0.51901151
 C           -2.76177619       -1.17893853       -0.26254217
 C           -2.15147033        2.27577123        0.35524256
 C           -3.03766399        1.21293913       -0.09340685
 C           -0.04155321        2.63443790       -0.83151730
 C           -1.43091937        2.73577471       -0.81803884
 C            1.90160450        1.51489575       -1.76167865
 C            2.22648250        0.23351162       -2.37153070
 C            0.62051766        2.04562803       -1.92315741
 C            0.73073486       -1.63480382       -2.92426057
 C            1.31625684       -0.34130084       -3.24953785
 C           -1.58539517       -1.95495961       -2.15270824
 C           -2.66984145       -1.08374436       -1.71449906
 C           -0.70345820       -1.54101916       -3.14745249
 C           -3.14051426        1.31169853       -1.53935182
 C           -2.21064235        2.34393726       -1.97456452
 C           -2.89898173        0.13340871       -2.34729315
 C           -0.07579542        1.72566245       -3.09146811
 C            0.25925255        0.49612296       -3.78911499
 C           -0.95238870       -0.30449523       -3.86569724
 C           -1.51823512        1.85360730       -3.14266120
 C           -2.06079511        0.54119833       -3.46166177
