54
Modified xyz file
 C            1.45808296       -0.03600813        3.76489831
 C            0.69457678       -1.23831342        3.49114487
 C            1.37831547       -1.98722885        2.45195695
 C            2.61015055       -0.03367534        2.88275920
 C            2.53926983       -1.21052145        2.03514158
 C            2.66360920        1.26228804        2.24637678
 C            0.62764452        1.10116989        3.40203974
 C            1.36616330        1.89850980        2.45167488
 C           -0.67497642       -0.83926183        3.25298863
 C           -0.66650388        0.59567969        3.00736547
 C           -1.44133371       -1.63721544        2.42011684
 C            0.62019198       -2.63849892        1.48161512
 C           -0.77654343       -2.63684722        1.59031229
 C            1.22105429       -2.90056142        0.25389538
 C            2.82759999       -1.09044673        0.67357141
 C            2.28827297       -2.02743318       -0.20772046
 C            3.23402245        1.33940998        0.98631965
 C            3.27970490        0.13274768        0.16273662
 C            2.81582751        2.43226853        0.12943431
 C            0.70515735        2.44347021        1.35184383
 C            1.50564907        3.00924145        0.36206069
 C           -1.26606728        1.07908815        1.84625788
 C           -0.60512971        2.02477087        1.03879765
 C           -2.44237368       -1.00083961        1.58639763
 C           -2.34687915        0.36700957        1.32999925
 C           -1.61676618       -2.85048371        0.41504314
 C           -2.72949461       -1.91460610        0.49289052
 C            0.40881839       -3.25092768       -0.89794247
 C           -1.03302393       -3.12389682       -0.81457757
 C            1.95552148       -1.61924749       -1.56449950
 C            0.86289542       -2.44611186       -2.02276075
 C            2.90802379        0.51308380       -1.19343985
 C            2.83675356        1.95673563       -1.24187385
 C            1.97869368       -0.26672150       -1.87939495
 C            0.94573094        3.30445410       -0.93491962
 C            1.72366045        2.56914175       -1.92578926
 C           -1.22418838        2.47617356       -0.14134335
 C           -0.44429350        2.99532453       -1.17440738
 C           -3.06673357        0.90067686        0.27279394
 C           -2.48653497        1.99240953       -0.48595334
 C           -3.29012848       -1.40175325       -0.67025499
 C           -3.70801407       -0.01076342       -0.66299328
 C           -1.47387965       -2.40052144       -1.99632230
 C           -0.29282877       -1.80184575       -2.60162688
 C           -2.65117414       -1.66385958       -1.95504660
 C            0.87023588        0.32959715       -2.51576970
 C            0.79220492        1.71908599       -2.63998477
 C           -0.49749082        2.35535340       -2.47825327
 C           -0.26748764       -0.42901046       -2.83926838
 C           -2.76019356        1.73990351       -1.89305446
 C           -3.52784204        0.51379832       -2.00173169
 C           -2.72033015       -0.44249536       -2.73856461
 C           -1.63008475        1.63034464       -2.79505064
 C           -1.47753516        0.21735936       -3.10788861
