54
Modified xyz file
 C            1.02654022       -0.03113779        4.11213695
 C            2.34360725       -0.28058681        3.55454163
 C            2.24092438       -1.44707504        2.68654687
 C            0.20502440       -1.18490803        3.79560634
 C            0.87005639       -1.91532492        2.72840627
 C           -1.13974752       -0.70381865        3.56373661
 C            0.28203799        1.15672961        3.71054864
 C           -1.08913068        0.74953093        3.47604236
 C            0.86080674        2.08810217        2.85568725
 C            3.00174431        0.77402240        2.80806362
 C            2.28007852        2.00654891        2.54586140
 C            2.81403325       -1.09926777        1.40370346
 C            3.40739743        0.21937997        1.52745553
 C            2.10697730       -1.38331330        0.24222166
 C            0.18820012       -2.13807736        1.53053254
 C            0.88234258       -2.06002714        0.31124840
 C           -1.83469885       -1.17231051        2.38486331
 C           -1.21005503       -2.08005827        1.53359059
 C           -1.74597739        1.13653216        2.23484563
 C           -2.48399839       -0.02391300        1.78043577
 C            0.15650326        2.49663645        1.64450972
 C           -1.06007671        1.90062737        1.29541395
 C            2.44338124        2.32057792        1.13792556
 C            3.10952152        1.20128138        0.49751330
 C            1.15199422        2.73051873        0.61187026
 C            2.38053503       -0.61350031       -0.88265844
 C            2.58737807        0.75645249       -0.71203522
 C            1.89892141       -1.05720139       -2.10543004
 C            0.21373117       -2.36499507       -0.88106513
 C            0.77913687       -1.98354803       -2.10253739
 C           -1.88973116       -2.37481558        0.36072305
 C           -1.13210764       -2.71502737       -0.82588663
 C           -2.81680324       -0.12844735        0.43776379
 C           -2.89789252       -1.42322024       -0.06801937
 C           -1.40132475        1.77527672       -0.05715338
 C           -2.43897265        0.90357629       -0.42863970
 C            0.83440835        2.37684341       -0.69124871
 C            1.76310588        1.62961104       -1.41776197
 C           -0.51034221        2.25904867       -1.02386982
 C            1.65797200       -0.07121339       -3.14571471
 C            1.46679413        1.30858527       -2.73786640
 C           -0.07147335       -1.65519596       -3.24207617
 C            0.49080676       -0.48689937       -3.90231461
 C           -2.00062033       -2.44405566       -1.96346986
 C           -3.10630457       -1.62485816       -1.48508860
 C           -1.45066213       -1.79765210       -3.13845972
 C           -2.83837451        0.83580130       -1.76479432
 C           -3.19503419       -0.45491230       -2.33184783
 C           -2.32961239       -0.68351337       -3.47423953
 C           -0.83542590        2.18447435       -2.37236805
 C            0.20187012        1.76010807       -3.29440908
 C           -0.33815930        0.68677191       -4.11201617
 C           -2.06941632        1.54112929       -2.77051736
 C           -1.75988916        0.60070743       -3.84030624
