54
Modified xyz file
 C            1.42720493        0.09155601        3.76476791
 C            0.62273098       -1.11493514        3.68725974
 C            1.22456529       -1.99386244        2.69995943
 C            2.50781397       -0.03738950        2.80445139
 C            2.49444735       -1.39496890        2.29980213
 C            2.39850406        1.05072043        1.84896170
 C            0.59258029        1.20162533        3.34263320
 C            1.20831565        1.81251310        2.18305462
 C           -0.75620189       -0.71418749        3.50309972
 C           -0.76598757        0.71665585        3.21394025
 C           -1.58366521       -1.54552298        2.76376906
 C            0.40905774       -2.60876360        1.74325743
 C           -0.98069206       -2.50185908        1.84014344
 C            0.96623766       -3.02476018        0.53567781
 C            2.96135495       -1.61077215        1.01307843
 C            2.33167662       -2.64758801        0.22114493
 C            2.66559855        0.79449876        0.50500436
 C            3.16423383       -0.46217057        0.13718231
 C            2.07745237        1.60972598       -0.46786860
 C            0.39342255        2.23301158        1.14270606
 C            0.96540906        2.39067753       -0.11752299
 C           -1.54639106        1.19181714        2.16064140
 C           -0.99810656        2.10980546        1.25609150
 C           -2.72533636       -0.95079594        2.09570083
 C           -2.67921770        0.46628540        1.79248371
 C           -1.78172059       -2.51310362        0.62337587
 C           -2.93323927       -1.65700776        0.84390967
 C            0.18310565       -2.91910756       -0.68783681
 C           -1.14316261       -2.50509819       -0.61531170
 C            2.37831511       -2.23672557       -1.17150439
 C            3.00975577       -0.93194446       -1.23300055
 C            1.04784873       -2.39030353       -1.73350423
 C            2.34941233        1.33574447       -1.80800291
 C            2.57198509       -0.03969071       -2.19823575
 C            1.54026208        1.92851655       -2.85557643
 C            0.25960514        3.10786321       -1.07991559
 C            0.51213242        2.87441488       -2.48712878
 C           -1.80171975        2.59083809        0.22356319
 C           -1.17585083        3.23086851       -0.92221576
 C           -3.24602492        0.63855373        0.46526086
 C           -3.28017067       -0.67466824       -0.16574911
 C           -2.87190181        1.74763076       -0.28051396
 C           -1.69177033       -1.78608388       -1.67928320
 C           -2.76918450       -0.83106818       -1.44727560
 C            0.56350326       -1.40812864       -2.59328769
 C            1.43366604       -0.40639490       -3.02861463
 C            0.90307310        0.83278612       -3.57429988
 C           -0.81562675       -1.23252114       -2.70212249
 C           -0.73617146        2.42412713       -3.08158580
 C           -1.79467403        2.69249653       -2.12519028
 C           -2.67168979        1.61145329       -1.71393376
 C           -2.51434855        0.34321042       -2.26659787
 C           -0.52800490        1.06514204       -3.55156071
 C           -1.37241138        0.04688407       -3.12328148
