54
Modified xyz file
 C            1.51137830        0.06402638        3.82048846
 C            0.70577206       -1.13425462        3.66019641
 C            1.32941949       -1.95564941        2.63594032
 C            2.57123537        0.01539589        2.83056054
 C            2.59350342       -1.32174138        2.27447778
 C            2.39717735        1.13202415        1.91743273
 C            0.66847136        1.20149431        3.50651170
 C            1.21851070        1.86692756        2.33610638
 C           -0.67360250       -0.72233238        3.48108759
 C           -0.70449123        0.73531731        3.45237155
 C           -1.46956215       -1.44200304        2.59910498
 C            0.53585591       -2.53501215        1.64146118
 C           -0.85237589       -2.40790031        1.69726232
 C            1.12966078       -2.94473374        0.45047210
 C            3.06588467       -1.47182110        0.98009303
 C            2.48380307       -2.51306309        0.15781848
 C            2.60363817        0.91834172        0.55804112
 C            3.18625475       -0.28485258        0.14241949
 C            1.91517715        1.70457409       -0.37000388
 C            0.34337501        2.33448415        1.36245520
 C            0.77747778        2.42289790        0.03810021
 C           -1.57379627        1.38326628        2.58427655
 C           -1.02695198        2.33994652        1.63478712
 C           -2.52897604       -0.76576604        1.86820639
 C           -2.59521586        0.62296499        1.88195551
 C           -1.62888110       -2.42616285        0.46498729
 C           -2.73211265       -1.48553323        0.62153740
 C            0.37039753       -2.89054387       -0.79080424
 C           -0.97907572       -2.55328665       -0.76441459
 C            2.52725646       -2.06667759       -1.22424247
 C            3.05362935       -0.71536786       -1.24212074
 C            1.22554585       -2.31270790       -1.81844308
 C            2.18316876        1.50527864       -1.72491601
 C            2.54155608        0.17504166       -2.17191957
 C            1.30695878        2.05783157       -2.73887630
 C           -0.08775183        2.98610537       -0.90151519
 C            0.16779954        2.83837514       -2.31947254
 C           -1.97998241        2.45766760        0.54337940
 C           -2.91208143        1.34417351        0.65667899
 C           -1.51934676        2.84999407       -0.70550410
 C           -3.22303399       -0.81411479       -0.49045702
 C           -3.29244573        0.64059521       -0.48171861
 C           -1.54966096       -2.00430781       -1.91096454
 C           -2.77294642       -1.22966702       -1.80398039
 C            0.69197206       -1.37060471       -2.69510750
 C            1.46444532       -0.26144755       -3.04961812
 C            0.82011436        0.94463852       -3.54296746
 C           -0.68988763       -1.35138803       -2.88777536
 C           -1.02153013        2.25482812       -2.92058588
 C           -2.06572074        2.23415133       -1.90555712
 C           -2.89027404        1.11880535       -1.79628476
 C           -2.62870952       -0.04281086       -2.63002010
 C           -0.62745969        1.01435235       -3.57136046
 C           -1.36356674       -0.13974912       -3.33958017
