54
Modified xyz file
 C            1.52810552       -0.18525242        4.08616079
 C            0.70548079       -1.37760974        4.13758861
 C            1.23714584       -2.31228281        3.16524590
 C            2.49597681       -0.35818534        3.01431294
 C            2.22310686       -1.61486540        2.35730518
 C            2.46335604        0.83772026        2.21352465
 C            0.66978693        0.92128338        3.70634391
 C            1.38177977        1.68268334        2.70206651
 C           -0.63033754       -1.01825924        3.68898443
 C           -0.62070377        0.38314865        3.33260790
 C            0.10492333       -2.89023543        2.47889911
 C           -1.01717666       -1.97502539        2.67576170
 C            0.32194998       -3.35783628        1.19537950
 C            2.08258100       -1.64976461        0.96620496
 C            1.39235993       -2.73227651        0.42003988
 C            2.60755645        0.73388560        0.83658203
 C            2.24664205       -0.47555160        0.20326737
 C            2.42301636        1.92718124        0.15310328
 C            0.64124036        2.36164914        1.73889866
 C            1.35936650        2.79500972        0.62866675
 C           -1.13859638        0.77260470        2.10270577
 C           -0.69444510        1.97820008        1.55403294
 C           -1.72110617       -1.53245680        1.55399485
 C           -1.79149277       -0.15777721        1.27585598
 C           -0.83029776       -3.43210409        0.32564232
 C           -1.86939608       -2.43682325        0.50939226
 C            0.96779789       -2.69269392       -0.96528696
 C           -0.34685950       -3.30393876       -1.03041352
 C            1.90344015       -0.47841555       -1.16724509
 C            1.19727447       -1.55182577       -1.72463000
 C            2.38669554        1.91797275       -1.28597308
 C            2.10526187        0.66488592       -1.94258157
 C            0.65401682        3.31387609       -0.52631016
 C            1.38227183        2.88145275       -1.70937244
 C           -1.42122836        2.51791279        0.50066135
 C           -0.73329381        3.28264276       -0.52899551
 C           -2.34284937        0.28885427        0.06468703
 C           -2.39062944        1.66705163       -0.16463841
 C           -2.24181438       -1.95927433       -0.80668843
 C           -1.37196525       -2.61417680       -1.78143662
 C           -2.56473902       -0.61668333       -0.98843480
 C            0.40120770       -1.34910617       -2.85974402
 C           -0.96020942       -1.87299383       -2.87513430
 C            1.19723743        0.95837854       -3.03862949
 C            0.65221751        2.29558403       -2.81941627
 C            0.38547826       -0.05591802       -3.52383024
 C           -1.43816248        3.06764241       -1.78215670
 C           -2.56214809        2.18679965       -1.50728429
 C           -0.71807818        2.52195674       -2.92199294
 C           -2.66020254       -0.16301736       -2.30714451
 C           -1.82547359       -0.79693785       -3.30917899
 C           -0.99004430        0.23518978       -3.89381008
 C           -2.66745578        1.25385712       -2.60276546
 C           -1.56856826        1.51386443       -3.52482271
