54
Modified xyz file
 C            1.44726261        0.00947757        4.17296301
 C            0.65263008       -1.19957165        4.04587707
 C            1.47552770       -2.18184704        3.37571455
 C            2.56406442       -0.10640228        3.24940146
 C            2.61864649       -1.47990980        2.80484692
 C            2.42072024        0.94036499        2.25469046
 C            0.63119367        1.12639872        3.73061271
 C            1.37391829        1.83789722        2.71306298
 C           -0.62651867       -0.83251965        3.45876346
 C           -0.68334386        0.62083818        3.38136859
 C           -1.17572237       -1.58561941        2.41823320
 C            0.87728435       -2.97340858        2.32017472
 C           -0.46944314       -2.66051649        1.86877758
 C            2.62378173       -1.74742452        1.38090645
 C            1.74468814       -2.87394063        1.15935389
 C            2.49091253        0.63579440        0.89350852
 C            2.57273153       -0.70002156        0.46387889
 C            2.08034684        1.61508568       -0.01853260
 C            0.64872573        2.52855847        1.75627518
 C            1.15790876        2.57242879        0.39666968
 C           -1.36507319        1.20690919        2.31617223
 C           -0.78852711        2.29617059        1.65833928
 C           -2.19170691       -1.00751471        1.66495879
 C           -2.32160016        0.44277563        1.65566735
 C           -2.42200557       -1.46825494        0.30649115
 C           -0.48225322       -2.86121941        0.42552031
 C            0.89765838       -2.84623729       -0.01929453
 C           -1.42433413       -2.18810007       -0.34638055
 C            2.19932631       -1.00297456       -0.84435854
 C            1.22181489       -1.98541676       -1.05867610
 C            2.20045810        1.36036358       -1.38129966
 C            2.37834980       -0.01539863       -1.80303839
 C            1.25602530        1.97340056       -2.30633712
 C            0.03221764        2.89381949       -0.46371312
 C           -1.18082074        2.61665411        0.29260694
 C            0.07964211        2.54300003       -1.80851640
 C           -2.79829203        0.83699417        0.33687772
 C           -3.09706820       -0.38990893       -0.39437371
 C           -2.21301176        1.91862651       -0.32580882
 C           -3.05382494       -0.37048645       -1.77862416
 C           -1.10273201       -1.84826165       -1.66563701
 C            0.25109184       -1.76655205       -2.03462080
 C           -2.08773202       -1.23119874       -2.43989535
 C            1.73932802       -0.16943967       -3.09741608
 C            1.23035563        1.13230580       -3.49260848
 C            0.63998054       -1.10354731       -3.19641078
 C           -1.74431738       -0.60968124       -3.70539876
 C           -0.02448607        0.91428165       -4.18289537
 C           -0.34973975       -0.50207155       -4.06697089
 C           -1.13298000        2.36946462       -2.48000807
 C           -2.31459946        1.99794275       -1.71370870
 C           -2.97426096        0.92033621       -2.42725718
 C           -1.18348022        1.66326783       -3.75058223
 C           -2.29871782        0.73428882       -3.69934971
