54
Modified xyz file
C          1.43348       -0.14174        4.08450
C          0.66028       -1.34433        3.94895
C          1.41543       -2.33798        3.32019
C          2.41112       -0.32185        3.05970
C          2.51310       -1.63868        2.70004
C          2.27316        0.64464        2.09357
C          0.63589        1.01047        3.71605
C          1.34012        1.68535        2.58883
C         -0.57915       -0.98402        3.42169
C         -0.74724        0.51677        3.49163
C         -1.09829       -1.71816        2.32323
C          0.90281       -3.13342        2.31841
C         -0.31781       -2.77868        1.77734
C          2.62416       -2.03951        1.37694
C          1.83022       -3.27742        1.21325
C          2.40669        0.33071        0.71808
C          2.60458       -1.05826        0.35396
C          1.91474        1.23753       -0.25780
C          0.60362        2.54778        1.59925
C          1.10229        2.36457        0.15851
C         -1.68154        1.26079        2.53768
C         -0.99122        2.46555        1.74290
C         -1.99318       -1.09041        1.47788
C         -2.43019        0.29832        1.63140
C         -2.09502       -1.43525        0.14021
C         -0.31273       -3.01061        0.39160
C          1.04025       -3.42940       -0.02245
C         -1.19589       -2.33809       -0.47435
C          2.21838       -1.44660       -0.94477
C          1.52387       -2.73320       -1.23852
C          1.84255        0.83963       -1.64088
C          1.93018       -0.53731       -1.92636
C          1.21529        1.66227       -2.58313
C          0.39890        3.07607       -0.82293
C          0.53955        2.77068       -2.15509
C         -1.75147        2.94160        0.47867
C         -0.98502        3.56756       -0.62856
C         -2.80107        0.68524        0.28780
C         -2.65878       -0.40708       -0.55093
C         -2.59449        1.95500       -0.24580
C         -2.47639       -0.27610       -1.90588
C         -0.88356       -2.13026       -1.86606
C          0.55533       -2.37880       -2.32040
C          1.14356       -1.18098       -3.00174
C         -1.63298       -1.14950       -2.58988
C          0.56395        1.16409       -3.80086
C          0.32289       -0.29264       -3.86821
C         -1.13328       -0.43140       -3.75918
C         -0.66138        2.95359       -2.89508
C         -1.61408        3.17760       -1.90307
C         -2.46815        2.11519       -1.63387
C         -2.47197        0.97685       -2.49141
C         -0.71123        1.88195       -3.79522
C         -1.68029        0.91189       -3.62983
