54
Modified xyz file
 C            1.51503773        0.10113643        3.89376301
 C            0.71206879       -1.10591394        3.95813238
 C            1.39324267       -2.12936969        3.18855278
 C            2.56598090       -0.11819414        2.91349866
 C            2.49398712       -1.49544595        2.48165128
 C            2.45168227        0.91933048        1.90851691
 C            0.66779961        1.16932939        3.39311565
 C            1.35464512        1.78955418        2.27860229
 C           -0.65204033       -0.75771999        3.59349650
 C           -0.65377592        0.62804909        3.14940008
 C           -1.41421939       -1.68013210        2.89128567
 C            0.61979500       -2.88610434        2.22166206
 C           -0.76542309       -2.85322333        2.30890526
 C            2.32450041       -1.76466017        1.06659843
 C            1.24347038       -2.71827392        0.91243835
 C            2.57341754        0.59826968        0.55972572
 C            2.42122869       -0.73442207        0.14160579
 C            2.24569931        1.60030442       -0.35408954
 C            0.59378590        2.30240902        1.23654326
 C            1.23837895        2.50623177        0.01683245
 C           -1.28711802        0.97443023        1.95584515
 C           -0.78372172        2.05056561        1.22307504
 C           -2.35995899       -1.18957502        1.90654464
 C           -2.16556145        0.07261382        1.33958667
 C           -1.52423203       -3.21869772        1.13090492
 C           -2.66167179       -2.31725606        1.05038840
 C            0.43979712       -2.65737998       -0.23221470
 C           -0.85712572       -3.17260195       -0.15754288
 C            1.93429367       -0.97533369       -1.13945416
 C            0.79869197       -1.79478727       -1.28848576
 C            2.46663581        1.31667426       -1.69816740
 C            2.26940187       -0.05425260       -2.12383788
 C            1.93500837        2.19222383       -2.72297393
 C            0.57055899        3.26488892       -0.94198405
 C            0.93308991        3.16151983       -2.34242293
 C           -1.53591987        2.52324336        0.15573742
 C           -0.87572095        3.31558509       -0.87032817
 C           -2.66634225        0.34928272        0.05627651
 C           -2.43702249        1.60017032       -0.50984602
 C           -2.90951936       -2.06954885       -0.35117122
 C           -1.85437187       -2.73222373       -1.10549002
 C           -2.95942234       -0.69740730       -0.81606415
 C           -0.09976851       -1.57974299       -2.35471291
 C           -1.44844417       -1.83055997       -2.15599610
 C           -2.35099485       -0.69236970       -2.13335990
 C            1.50285440       -0.02890937       -3.34404716
 C            1.37000020        1.35604693       -3.76776261
 C            0.18749955       -0.61641023       -3.31371229
 C           -0.28135619        2.86976837       -3.09224187
 C           -1.39232918        2.89430945       -2.16165451
 C           -2.16795825        1.68377690       -1.94082225
 C           -1.89041861        0.51304127       -2.65585591
 C           -0.04808065        1.66170521       -3.85366966
 C           -0.78003428        0.45605551       -3.50477730
