54
Modified xyz file
C          1.37604        0.14209        4.11277
C          0.52949       -1.01429        3.83871
C          1.29377       -1.91878        2.97415
C          2.38268        0.06966        3.08558
C          2.40923       -1.15841        2.49515
C          2.37396        1.20040        2.30820
C          0.64098        1.34416        3.85716
C          1.44888        2.18408        2.94349
C         -0.72056       -0.66808        3.47302
C         -0.62674        0.82389        3.29075
C         -1.57175       -1.54569        2.52851
C          0.80510       -2.61329        1.95344
C         -0.65627       -2.50836        1.67846
C          2.51723       -1.33872        1.14081
C          1.79675       -2.56542        0.81915
C          2.48758        1.10226        0.89125
C          2.53809       -0.21463        0.27493
C          2.03040        2.19305        0.13577
C          0.70786        3.05970        2.02326
C          1.31764        3.35317        0.72530
C         -1.21400        1.41929        2.22082
C         -0.64521        2.59204        1.65226
C         -2.28674       -0.63203        1.52596
C         -2.07555        0.68635        1.39334
C         -2.72395       -1.12188        0.22546
C         -1.02399       -2.86087        0.42211
C         -2.20906       -2.31525       -0.25278
C          1.40641       -2.89035       -0.60628
C         -0.07731       -3.32942       -0.63328
C          2.11424       -0.37297       -1.08701
C          1.62713       -1.67013       -1.56106
C          1.67608        2.04971       -1.18189
C          1.75789        0.81154       -1.84584
C          0.26626        3.63576       -0.24528
C         -0.91889        2.96047        0.32591
C          0.68300        3.09923       -1.54628
C         -2.43556        1.11354        0.11218
C         -2.85236       -0.04940       -0.65229
C         -1.82956        2.23159       -0.47382
C         -2.57806       -0.16444       -2.03795
C         -2.01910       -2.49639       -1.59737
C         -0.82106       -3.24725       -1.89658
C         -2.20467       -1.46683       -2.50807
C          0.90805       -1.69583       -2.78941
C         -0.24639       -2.58245       -3.04995
C         -1.26071       -1.62389       -3.52323
C          1.05156        0.69143       -3.05040
C          0.66934       -0.53782       -3.48766
C         -0.66199       -0.49208       -4.01317
C         -0.36058        2.67924       -2.51038
C         -1.67439        2.22349       -1.96038
C         -2.03712        0.97954       -2.70661
C          0.02118        1.66123       -3.47920
C         -1.10525        0.78807       -3.73173
