54
Modified xyz file
 C            1.45538563        0.15884249        4.12856559
 C            0.58926457       -1.00321779        4.04566548
 C            1.25962526       -1.99207505        3.22161339
 C            2.53440734       -0.02696937        3.17173048
 C            2.44461847       -1.36969447        2.64979735
 C            2.48458706        1.07114234        2.23180879
 C            0.68420927        1.31786166        3.70975270
 C            1.38217019        1.94431337        2.60354895
 C           -0.73562805       -0.54769341        3.65702660
 C           -0.68717553        0.90083162        3.50819182
 C           -1.47837714       -1.30639146        2.75699821
 C            0.52186058       -2.61153863        2.13555549
 C           -0.84871221       -2.41022895        2.03984548
 C            2.38546488       -1.54773786        1.20977708
 C            1.32805121       -2.50077497        0.93019332
 C            2.69832113        0.84240282        0.87640754
 C            2.53598800       -0.45617639        0.35294954
 C            2.44991665        1.93019449        0.04979556
 C            0.64816506        2.54404575        1.57868014
 C            1.30584294        2.76996018        0.37063982
 C           -1.41442143        1.51113225        2.49388042
 C           -0.74559013        2.43345159        1.58067437
 C           -2.39462104       -0.64497715        1.83948466
 C           -2.36983068        0.73370169        1.71890065
 C           -1.46661966       -2.49082529        0.73111262
 C           -2.48343519       -1.45685479        0.64019306
 C            0.69448023       -2.43546085       -0.30767776
 C           -0.67517738       -2.72187048       -0.38809564
 C            2.14836819       -0.62472035       -0.98316470
 C            1.29998657       -1.68645546       -1.32312642
 C            2.48668775        1.75162449       -1.38305122
 C            2.35808268        0.40843600       -1.89332764
 C            0.54341560        2.95155235       -0.85504497
 C            1.40400213        2.53761124       -1.95076736
 C           -1.47739489        2.40253136        0.32141140
 C           -2.45731895        1.32786707        0.39851465
 C           -0.81176846        2.62510355       -0.88127946
 C           -2.70049133       -0.86812633       -0.60591833
 C           -2.67358115        0.53481749       -0.72707410
 C           -1.30650012       -2.60417562       -1.62097642
 C           -2.41849551       -1.66892483       -1.71573498
 C            0.80576720       -1.79425259       -2.62227128
 C           -0.48800801       -2.41869643       -2.79985572
 C            1.53679242        0.49171800       -3.08696042
 C            0.82986941        1.76922298       -3.03621346
 C            0.86843464       -0.64677218       -3.51470666
 C           -1.38814547        2.14146652       -2.05904904
 C           -2.43141130        1.13228636       -1.96438631
 C           -0.54851346        1.79502578       -3.19868161
 C           -2.41322514       -1.10081299       -3.04813660
 C           -1.25348081       -1.62935198       -3.74911686
 C           -0.43043959       -0.50431348       -4.15243585
 C           -2.39286761        0.33637640       -3.17480948
 C           -1.19253482        0.70556930       -3.91085289
