54
Modified xyz file
 C            1.48913141        0.00834628        3.76350727
 C            0.65934232       -1.17540106        3.63746277
 C            1.19202121       -1.98260662        2.55492610
 C            2.45667599       -0.01125673        2.67881481
 C            2.28746247       -1.23954657        1.94466356
 C            2.33201653        1.22417569        1.95078919
 C            0.63486608        1.16776059        3.57361567
 C            1.19196580        1.95321728        2.48910887
 C           -0.72354596       -0.74890465        3.56295901
 C           -0.73358685        0.70574988        3.46374633
 C           -1.59462208       -1.49684610        2.78221482
 C            0.30977981       -2.67300465        1.72414416
 C           -1.06552129       -2.58410084        1.96730054
 C            0.77023329       -3.05632313        0.46263453
 C            2.38221684       -1.22466396        0.55669700
 C            1.92185790       -2.36371967       -0.09155182
 C            2.50212147        1.22244674        0.57279867
 C            2.43704534        0.00446040       -0.13878457
 C            2.11895885        2.39374759       -0.06186293
 C            0.34026883        2.59766689        1.59122409
 C            0.89816133        3.03822665        0.39300716
 C           -1.57151960        1.33047010        2.54783192
 C           -1.03369710        2.34061377        1.64080686
 C           -2.62140795       -0.82602927        2.00055761
 C           -2.55708250        0.54881862        1.81666105
 C           -2.00869514       -2.79977845        0.88364411
 C           -2.92954739       -1.67330994        0.86506581
 C           -0.16410080       -3.29708330       -0.62949943
 C           -1.50324833       -2.98871726       -0.46129466
 C            1.80247659       -2.37485929       -1.52778137
 C            0.48983242       -2.90870210       -1.86343170
 C            2.34307461        0.01999837       -1.54872202
 C            1.96475724       -1.12980948       -2.23949087
 C            2.15414180        2.46541745       -1.50021369
 C            2.26442192        1.23045120       -2.23814716
 C            0.05511587        3.20909362       -0.77787137
 C            0.93631474        3.13253446       -1.93328634
 C           -1.80607951        2.27843689        0.40652734
 C           -2.67119005        1.10905473        0.47581988
 C           -1.20452485        2.61048074       -0.80183540
 C           -2.90776444       -1.10250595       -0.46943467
 C           -2.12052701       -1.98395727       -1.31809578
 C           -2.79580300        0.27609407       -0.63842858
 C           -0.16204526       -1.94685917       -2.73580874
 C            0.88309980       -1.05085213       -3.20841955
 C           -1.41441925       -1.43321816       -2.38849146
 C            1.36040675        1.33567229       -3.37407463
 C            0.47864338        2.46861172       -3.13509618
 C            0.53599842        0.19027708       -3.72130533
 C           -1.69166511        2.02202540       -1.96983392
 C           -2.40124821        0.75593766       -1.88379313
 C           -1.77444531       -0.16050113       -2.82532073
 C           -0.88398593        1.98491309       -3.17887016
 C           -0.85213606        0.60785765       -3.64578299
