54
Modified xyz file
 C            1.43403660        0.01076738        4.01321583
 C            0.59891553       -1.15611337        3.77813227
 C            1.37525750       -2.09487384        3.00530537
 C            2.57600338       -0.08501152        3.12099892
 C            2.62472700       -1.44059525        2.63174570
 C            2.48074835        0.99147750        2.15442935
 C            0.66562475        1.18024662        3.62607212
 C            1.35522022        1.83655649        2.53120819
 C           -0.66217093       -0.68964708        3.23699364
 C           -0.69838516        0.75335691        3.40564944
 C           -1.17485609       -1.23932491        2.05856406
 C            0.80105427       -2.63939790        1.78954355
 C           -0.44333104       -2.19957047        1.33409391
 C            2.80167125       -1.65222743        1.20965804
 C            1.89175501       -2.72237770        0.84137679
 C            2.70840928        0.74501573        0.79981375
 C            2.94406804       -0.56485917        0.34210713
 C            2.30262879        1.73302114       -0.09473956
 C            0.59793136        2.43198481        1.52209420
 C            1.18624268        2.59168407        0.27051405
 C           -1.46226570        1.48606687        2.51431434
 C           -0.79588598        2.43838274        1.63008414
 C           -2.23898041       -0.57847269        1.44138728
 C           -2.43054691        0.77948455        1.69872968
 C           -2.81465005       -1.13766982        0.30775930
 C           -0.79890727       -2.49045809        0.01139745
 C           -2.03033888       -2.06911707       -0.47753217
 C            1.58767159       -2.88645391       -0.49913396
 C            0.19045194       -2.84852975       -0.90726514
 C            2.91441179       -0.84001916       -1.02652431
 C            2.33824437       -2.10175444       -1.46283767
 C            2.21126937        1.45451744       -1.51568291
 C            2.50110532        0.18011132       -1.97594530
 C            0.36002334        2.77778675       -0.91261800
 C            1.05839970        2.17197658       -2.03868923
 C           -1.62306526        2.56224300        0.43467542
 C           -2.76595316        1.67437083        0.60660924
 C           -1.02723992        2.68275831       -0.81878415
 C           -3.55097082       -0.28480026       -0.61510484
 C           -3.40035410        1.15643788       -0.51263079
 C           -2.13235756       -1.66422509       -1.87184734
 C           -3.19556467       -0.67836363       -1.96845746
 C            0.13601681       -2.30299716       -2.25618877
 C            1.46922983       -1.83476915       -2.59401664
 C            1.64158698       -0.44680916       -2.97304079
 C           -0.96547135       -1.53659887       -2.62720410
 C            0.32489221        1.62802002       -3.08476608
 C            0.53681119        0.23881905       -3.46070674
 C           -0.76399545       -0.41554532       -3.44224710
 C           -1.77516816        2.39119199       -1.95890941
 C           -3.02166836        1.65621456       -1.82195495
 C           -2.97671330        0.52728660       -2.73901196
 C           -1.10420661        1.88161795       -3.14202712
 C           -1.76136133        0.63918511       -3.51860670
