54
Modified xyz file
 C            1.39184325        0.06683405        4.16720833
 C            0.59418669       -1.14118147        4.04456371
 C            1.33928830       -2.07717631        3.22387351
 C            2.49968920       -0.03899248        3.23177413
 C            2.52273685       -1.38988685        2.72636995
 C            2.38429127        1.04562742        2.27681585
 C            0.56514901        1.18641406        3.75126322
 C            1.23203173        1.85442107        2.64936956
 C           -0.74361712       -0.75388743        3.62932231
 C           -0.78258806        0.69977399        3.54236044
 C           -1.40943493       -1.51776179        2.67451660
 C            0.67755960       -2.69921292        2.08836833
 C           -0.68865009       -2.53640068        1.91718685
 C            2.56752724       -1.57949515        1.29159686
 C            1.54884227       -2.55423420        0.93607536
 C            2.62365442        0.81981074        0.92043553
 C            2.77316128       -0.49467583        0.43850774
 C            2.23341826        1.83506712        0.04921068
 C            0.46407951        2.42029798        1.63239109
 C            1.08568511        2.65304448        0.40962850
 C           -1.54625676        1.30510762        2.55292871
 C           -0.92580505        2.28983153        1.67319923
 C           -2.35575561       -0.87877522        1.77230489
 C           -2.44979342        0.50175867        1.74305526
 C           -1.22805817       -2.54936185        0.57138911
 C           -2.33813750       -1.61085982        0.51934016
 C            1.00884362       -2.50028146       -0.34930145
 C           -0.37644561       -2.63988518       -0.52972061
 C            2.62896865       -0.75297737       -0.92358335
 C            1.77007198       -1.85620431       -1.32478716
 C            2.19031757        1.60714775       -1.38240686
 C            2.42309494        0.33137364       -1.86591899
 C            0.29205351        2.86127460       -0.79229413
 C            1.09108780        2.39458163       -1.92026527
 C           -1.69578955        2.30590056        0.43841348
 C           -2.60300637        1.16898962        0.46452188
 C           -1.08662557        2.63980602       -0.76704429
 C           -2.59387490       -0.96240660       -0.68768459
 C           -2.77784399        0.43340144       -0.70611255
 C           -0.93987029       -2.39552078       -1.78254130
 C           -2.17299065       -1.62719145       -1.83997605
 C            1.18901615       -1.53069104       -2.61269492
 C            1.61841419       -0.18079787       -2.96500468
 C           -0.10611296       -1.94550713       -2.88266675
 C            0.45230748        1.98480126       -3.08329966
 C            0.75345163        0.67397350       -3.64301442
 C           -1.73996880        2.27414759       -1.94331898
 C           -2.65327283        1.14062254       -1.90293019
 C           -0.97944437        2.18092872       -3.17540752
 C           -2.23198779       -0.97327116       -3.13049381
 C           -0.94096427       -1.16038019       -3.77753554
 C           -0.47105954        0.14038254       -4.21572166
 C           -2.54826292        0.43374701       -3.16425746
 C           -1.53515440        1.09794938       -3.96800907
