54
Modified xyz file
 C            1.07614126       -0.18879187        3.94453037
 C            2.30653417       -0.44226945        3.21727716
 C            2.18381860       -1.73790962        2.56627399
 C            0.23191387       -1.36614455        3.81771427
 C            0.87152127       -2.27519866        2.88036293
 C           -1.12299029       -0.91604185        3.55440765
 C            0.27428134        0.97344323        3.59935039
 C           -1.09983522        0.53319266        3.44081686
 C            0.77762873        1.92202746        2.71671570
 C            2.74590006        0.51373698        2.21624840
 C            2.07905731        1.72800868        2.08578850
 C            2.56721087       -1.57536377        1.17123550
 C            3.10884386       -0.23658898        1.02411769
 C            1.75173143       -2.10016581        0.16870148
 C            0.12404653       -2.84940727        1.85836785
 C            0.70172169       -2.94514425        0.52701378
 C           -1.82666253       -1.43871444        2.39716730
 C           -1.28326829       -2.50164265        1.68986329
 C           -1.82545944        0.89952043        2.23428093
 C           -2.37551940       -0.31282756        1.65838266
 C           -0.10450396        2.50372940        1.71737396
 C           -1.29883905        1.86113110        1.37817905
 C            2.04011553        2.38774497        0.78859327
 C            0.74478653        3.04161981        0.66700323
 C            3.04523900        0.37735771       -0.21813604
 C            2.60008193        1.75914237       -0.31952633
 C            1.79203216       -1.54793798       -1.11789393
 C            2.47313991       -0.35171550       -1.33732280
 C            0.91063115       -2.00018672       -2.10050555
 C           -0.40310783       -3.14099815       -0.38925418
 C           -1.58978883       -2.62485322        0.27574781
 C           -0.22027502       -2.83827991       -1.72823093
 C           -2.49372290       -0.39360949        0.27360753
 C           -2.33375008       -1.63280106       -0.36013563
 C           -1.74056696        1.89835034        0.05370200
 C           -2.41023286        0.78378319       -0.47559058
 C            0.19423492        3.24546382       -0.58989954
 C           -1.18463212        2.85422952       -0.79723971
 C            1.98759592        1.93161467       -1.62757582
 C            1.92199215        0.62283085       -2.26644944
 C            0.92685592        2.81563695       -1.77192770
 C            0.45829856       -1.07222205       -3.12994902
 C            0.81658894        0.27496813       -3.04205452
 C           -1.37352091       -2.37096506       -2.47803235
 C           -2.44003875       -1.70697946       -1.74738279
 C           -0.89812757       -1.44947992       -3.49179618
 C           -2.79404717        0.75638144       -1.81496634
 C           -2.80680008       -0.52057750       -2.49837503
 C           -1.90199174       -0.41689034       -3.63679733
 C           -1.37239011        2.75587799       -2.22969160
 C           -0.05250737        2.56560917       -2.81510269
 C           -0.06298159        1.27231003       -3.47586190
 C           -2.23407209        1.71592353       -2.74547564
 C           -1.46231147        0.96007267       -3.71764999
