54
Modified xyz file
 C            1.00227672       -0.17661019        4.00233648
 C            2.30929877       -0.41852638        3.42035610
 C            2.26443590       -1.73030122        2.79418141
 C            0.16846268       -1.32899751        3.69097332
 C            0.86543762       -2.10003345        2.68145771
 C           -1.15798119       -0.84164860        3.39524565
 C            0.25955593        1.01010056        3.61669546
 C           -1.12568303        0.61178584        3.47270125
 C            0.80408046        1.90393896        2.70014423
 C            2.83463163        0.51214088        2.43593531
 C            2.09958717        1.63843770        2.08333165
 C            3.05761182       -1.66198035        1.58591701
 C            3.45890861       -0.27578384        1.39123434
 C            2.46002246       -2.10976163        0.34455381
 C            0.30409555       -2.25943314        1.40952945
 C            1.14744275       -2.57281251        0.33309718
 C           -1.75833568       -1.18681890        2.12228009
 C           -1.03461315       -1.89337411        1.16905412
 C           -1.89482311        1.11920722        2.35059188
 C           -2.49968663       -0.02619575        1.68606910
 C           -0.04930828        2.52738469        1.69510166
 C           -1.38943953        2.15422438        1.56419522
 C            2.02325113        2.04828683        0.68658107
 C            0.75540227        2.73749788        0.49894779
 C            3.20786395        0.06089054       -0.00192298
 C            2.86034742       -1.17321018       -0.68845136
 C            2.51937866        1.22579446       -0.32581040
 C            2.08926330       -1.11505598       -1.84651079
 C            0.58813673       -2.81225289       -0.91492388
 C            1.19336880       -2.16079714       -2.06760273
 C           -1.52959216       -1.91422440       -0.13462760
 C           -0.84094881       -2.67287835       -1.07369639
 C           -2.81469014        0.09714426        0.33948298
 C           -2.45369386       -0.93251275       -0.54236351
 C           -2.03133059        2.40423115        0.35401689
 C           -2.94214856        1.39387686       -0.15006577
 C            0.13583813        2.71697518       -0.74532747
 C           -1.24864565        2.84838877       -0.78844759
 C            1.98775784        1.33585754       -1.60556551
 C            1.84271150        0.13565513       -2.41857692
 C            0.82011087        2.17387105       -1.83362524
 C            0.70554841        0.33771818       -3.30914191
 C            0.09304993        1.61742064       -2.96784859
 C            0.16470086       -2.03876549       -3.08501888
 C           -1.08534353       -2.48949561       -2.49025504
 C           -0.08111673       -0.74515706       -3.68868849
 C           -2.84581817       -0.84065722       -1.88255848
 C           -2.12466513       -1.57580673       -2.90182405
 C           -1.52164863       -0.59463978       -3.79283339
 C           -3.08734243        1.61781577       -1.57392816
 C           -1.98126052        2.46995705       -1.98733436
 C           -1.28316680        1.79162319       -3.06180263
 C           -3.11492861        0.46736982       -2.45109365
 C           -2.12636697        0.69013665       -3.49416540
