54
Modified xyz file
 C            1.50570194       -0.04246764        3.74792785
 C            0.70362742       -1.22451477        3.51391132
 C            1.25605951       -1.93889667        2.37261515
 C            2.60049380       -0.06543637        2.79907794
 C            2.38556701       -1.17094531        1.88067237
 C            2.69704768        1.26323575        2.23798924
 C            0.67806071        1.10892919        3.42403622
 C            1.40255331        1.90105467        2.45922549
 C           -0.67594341       -0.79069721        3.42815681
 C           -0.63301362        0.61731220        3.06205270
 C           -1.54254965       -1.61025058        2.72894748
 C            0.35786916       -2.49758844        1.46873103
 C           -0.95834764       -2.65718480        1.90902124
 C            0.61825420       -2.40272998        0.09368025
 C            2.50692216       -0.92694755        0.51603094
 C            1.65206741       -1.57980685       -0.37775736
 C            3.25839098        1.37993529        0.97709817
 C            3.20831612        0.21300223        0.10166107
 C            2.85473923        2.51924367        0.17868211
 C            0.72779092        2.43336916        1.36256888
 C            1.52098087        3.04713263        0.39534359
 C           -1.20959961        1.01659692        1.85471325
 C           -0.54252996        1.92834789        1.01027719
 C           -2.54457899       -0.99004539        1.88745876
 C           -2.29881391        0.28277306        1.37389386
 C           -1.98948517       -3.07391784        0.98021245
 C           -3.01195705       -2.03587421        0.99307743
 C           -0.27693438       -2.96705676       -0.82133380
 C           -1.61857271       -3.31667351       -0.39458429
 C           -0.39680381       -2.39809325       -2.15249846
 C            1.73906109       -1.29249824       -1.74056830
 C            0.60782157       -1.56084596       -2.60931281
 C            3.08184098        0.69258307       -1.26713658
 C            2.95145864        2.13839218       -1.21783557
 C            2.31943438       -0.03510052       -2.17051704
 C            0.96853502        3.35427737       -0.90211945
 C            1.84646153        2.77204937       -1.91063375
 C           -1.14149572        2.31492186       -0.20253337
 C           -0.37700234        2.92509022       -1.19544951
 C           -2.92071750        0.66499792        0.19243593
 C           -2.34610538        1.73674790       -0.59434231
 C           -3.31896394       -1.69345680       -0.38159906
 C           -2.55028957       -2.58570782       -1.23806292
 C           -1.79247827       -2.03024607       -2.35012788
 C           -3.42344556       -0.35224957       -0.72689442
 C           -2.53003142        1.39976403       -1.99808102
 C           -2.11242916       -0.76025118       -2.82062411
 C           -3.05861053        0.05121760       -2.07229019
 C            0.26525642       -0.31507946       -3.28057628
 C            1.33461991        0.63581101       -3.01465354
 C            1.01952250        1.97406737       -2.79820886
 C           -0.35805337        2.34514660       -2.52868763
 C           -1.05757396        0.11985333       -3.30069800
 C           -1.38212784        1.47871025       -2.88237221
