54
Modified xyz file
 C            1.62994648        0.13918359        4.00194797
 C            0.78146360       -1.04266912        4.03762700
 C            1.39918599       -2.04963649        3.19699540
 C            2.60874075       -0.05337615        2.94827154
 C            2.58332275       -1.45366737        2.59374596
 C            2.35418265        0.92581814        1.90034579
 C            0.79787252        1.26365308        3.62388542
 C            1.28218748        1.79178666        2.35639433
 C           -0.57855129       -0.62216373        3.74918236
 C           -0.58584514        0.83417028        3.69969030
 C           -1.34566725       -1.34848169        2.83857171
 C            0.62069121       -2.66416301        2.13122622
 C           -0.72574631       -2.36227478        1.99250766
 C            2.56530113       -1.78470254        1.18826347
 C            1.45779100       -2.69102069        0.94872880
 C            2.36835022        0.52161809        0.56604152
 C            2.77334816       -0.78282577        0.24707377
 C            1.62956787        1.25847459       -0.36828158
 C            0.34135843        2.24721433        1.43679776
 C            0.58955950        2.09896527        0.06424726
 C           -1.49348973        1.47730071        2.87282115
 C           -0.97210504        2.40246952        1.88187635
 C           -2.35194696       -0.66532712        2.04320935
 C           -2.52488786        0.70329001        2.20071742
 C           -1.28991130       -2.24384628        0.65692620
 C           -2.33924535       -1.24396294        0.70257682
 C            0.88976771       -2.65659151       -0.32267665
 C           -0.46368305       -2.29963226       -0.46335482
 C            2.67063053       -1.19297766       -1.07427851
 C            1.76771941       -2.30298109       -1.34110221
 C            1.79298297        0.98561348       -1.72838239
 C            2.41216710       -0.20654505       -2.09941209
 C            1.05509742        1.70333921       -2.66765312
 C           -0.34411363        2.59290669       -0.85926665
 C           -0.08548608        2.48159325       -2.22242995
 C           -2.03025505        2.60469132        0.92056786
 C           -2.95885504        1.48919405        1.06203079
 C           -1.68256941        2.68978564       -0.47962636
 C           -2.54964055       -0.43578411       -0.41294345
 C           -3.04815509        0.85627940       -0.24128620
 C           -2.66048885        1.88277625       -1.18811481
 C           -0.91470600       -1.72348211       -1.66202353
 C           -1.95348243       -0.77321063       -1.63359629
 C            1.25470416       -2.13499538       -2.68042824
 C            1.90742700       -0.96101289       -3.23382172
 C           -0.16438735       -1.92191183       -2.82387205
 C            0.69607379        1.08150613       -3.93725436
 C            0.95739014       -0.32931351       -4.12144581
 C           -0.31275562       -1.02846515       -3.95577019
 C           -1.20483220        2.14325325       -3.08865254
 C           -2.34807877        1.49679503       -2.47697758
 C           -2.17214070        0.07645065       -2.72507315
 C           -0.72841759        1.26093368       -4.13439840
 C           -1.35738633       -0.03404144       -3.92014752
