54
Modified xyz file
 C            1.20200812       -0.12179103        3.84486251
 C            2.48443459       -0.44584310        3.25539429
 C            2.31989641       -1.69031426        2.51263711
 C            0.35227575       -1.28796174        3.68416307
 C            0.92845864       -2.08521708        2.61747763
 C           -1.00179501       -0.80315712        3.52566919
 C            0.45629514        1.01205279        3.32212469
 C           -0.93895402        0.64799341        3.41202488
 C            0.91342754        1.66924709        2.17869561
 C            3.08686209        0.52029354        2.35956045
 C            2.27378873        1.61565594        1.85999958
 C            2.88902769       -1.49483744        1.19375436
 C            3.56433079       -0.20807362        1.19945224
 C            2.14683419       -1.84699362        0.07043647
 C            0.19505418       -2.29311761        1.44917057
 C            0.87187960       -2.40371122        0.22457003
 C           -1.77801075       -1.28082400        2.39944298
 C           -1.20126862       -2.14271086        1.47476010
 C           -1.82275715        1.03709260        2.33497244
 C           -2.53722377       -0.15179656        1.89863115
 C            0.00035304        2.18358915        1.24311960
 C           -1.37631659        1.92530442        1.36476203
 C            0.49018047        2.81050169        0.09513370
 C            2.70165571        1.85516341        0.49302101
 C            3.40507397        0.65957477        0.04326776
 C            1.83131167        2.50393578       -0.36997820
 C            2.49729946       -1.27145491       -1.15014187
 C            3.04512997        0.07616292       -1.16522645
 C            1.61662923       -1.40770834       -2.29745080
 C            0.17637919       -2.81807803       -0.90838895
 C            0.50575469       -2.23400774       -2.19904485
 C           -1.93648350       -2.39633544        0.32448255
 C           -1.26371220       -2.94026543       -0.83508625
 C           -3.01297088       -0.19155075        0.58859498
 C           -2.88202520       -1.38457804       -0.13310300
 C           -2.21510408        2.10365576        0.26635312
 C           -3.11736939        1.01978992       -0.09410098
 C           -0.35287362        2.94073186       -1.07957186
 C           -1.71139776        2.69080828       -0.96120014
 C            1.72137251        2.06122684       -1.75196944
 C            2.27870397        0.84451715       -2.13151120
 C            1.49560657       -0.09693902       -2.91962984
 C            0.39376151        2.42330526       -2.22199825
 C            0.28032777        0.30177575       -3.46562334
 C           -0.24047472        1.62847070       -3.17286779
 C           -0.73782566       -1.85756158       -2.85447448
 C           -1.83393634       -2.32151146       -2.02060169
 C           -2.85297527       -1.37680621       -1.59180636
 C           -0.84199477       -0.62439639       -3.49024037
 C           -3.27619925        1.03099925       -1.53629926
 C           -2.43612289        2.09221045       -2.07037663
 C           -1.69040547        1.55098790       -3.19037868
 C           -3.00265627       -0.18072512       -2.28248191
 C           -2.06326003        0.15322109       -3.34298155
