54
Modified xyz file
 C            1.39513981       -0.10026398        3.58748646
 C            2.60885701       -0.36968263        2.84075606
 C            2.46929667       -1.67331226        2.21222883
 C            0.54535344       -1.27358307        3.49213003
 C            1.16459526       -2.20675986        2.56551546
 C           -0.80680782       -0.82402263        3.21539336
 C            0.59487672        1.05821018        3.22639520
 C           -0.73229106        0.58583023        2.86466336
 C            1.16950476        2.06991901        2.46924384
 C            3.01728196        0.57778134        1.82115484
 C            2.46566028        1.85259997        1.82943853
 C            2.81446838       -1.53753155        0.81013453
 C            3.11213583       -0.13777527        0.55437763
 C            2.08508030       -2.25207598       -0.12386083
 C            0.36944620       -2.78746140        1.57895826
 C            0.90033854       -2.98696025        0.29980688
 C           -1.62107708       -1.64845320        2.45924827
 C           -1.01367475       -2.77176863        1.75968154
 C           -2.53960297       -1.03914552        1.52017368
 C           -1.32860235        1.04323023        1.68479274
 C           -2.24429195        0.22505636        1.00524466
 C            0.33605108        2.78755474        1.52231814
 C           -0.87636058        2.23421541        1.10653000
 C            2.46629257        2.60130101        0.58723651
 C            1.22562369        3.35269101        0.52648690
 C            2.66075603        0.47473070       -0.61888367
 C            2.58339499        1.86797757       -0.65907554
 C            1.79061561       -1.64333770       -1.40828349
 C            2.04317288       -0.28949712       -1.61892921
 C            0.02336561       -3.09562831       -0.85929018
 C            0.54727576       -2.21818256       -1.89946246
 C           -1.89585457       -3.11092656        0.65621373
 C           -2.94489954       -2.10279433        0.62248322
 C           -1.34640165       -3.21886295       -0.68138885
 C           -3.19775151       -1.77774413       -0.76116250
 C           -2.24200739       -2.51450905       -1.57822175
 C           -2.71927949        0.59129894       -0.26267574
 C           -3.12247180       -0.39044229       -1.17106217
 C           -1.43633552        2.67650590       -0.08935524
 C           -2.41600550        1.85063472       -0.76816240
 C            0.78612574        3.36630009       -0.85475243
 C            1.70262002        2.51679004       -1.61241161
 C           -0.57802330        3.28233823       -1.10165481
 C            1.40118372        0.33817546       -2.68624253
 C            1.22860472        1.78181593       -2.69011787
 C           -0.30970451       -1.42856541       -2.66696205
 C           -1.69272925       -1.57957872       -2.54877056
 C           -2.53851920       -0.39630688       -2.49889675
 C            0.19444610       -0.26202003       -3.23926027
 C           -2.20315091        1.99663039       -2.20141543
 C           -1.02401238        2.82024809       -2.40151453
 C           -0.09192489        2.07339435       -3.22363498
 C           -2.05787008        0.79852033       -3.01207297
 C           -0.72191363        0.81344203       -3.58057184
