54
Modified xyz file
 C            1.58225136        0.04406432        4.02255300
 C            0.74008694       -1.14048917        4.02630568
 C            1.40359279       -2.14772200        3.22074622
 C            2.58779712       -0.13536804        2.98942240
 C            2.55600587       -1.52092182        2.58514887
 C            2.37583750        0.88250314        1.97761783
 C            0.75466907        1.17272356        3.63789349
 C            1.32726449        1.76956435        2.44244807
 C           -0.60944145       -0.73061730        3.67435747
 C           -0.62296328        0.72305873        3.58460278
 C           -1.34290999       -1.48728899        2.76293497
 C            0.65171451       -2.83149845        2.18131393
 C           -0.70967604       -2.57822230        2.03125174
 C            2.48600788       -1.82265924        1.16950618
 C            1.50274354       -2.87326610        1.00432740
 C            2.38806478        0.54310812        0.62804563
 C            2.52235436       -0.79643469        0.22494427
 C            1.87065562        1.47005720       -0.27521100
 C            0.46509538        2.31511046        1.49438556
 C            0.87348068        2.35557527        0.15706003
 C           -1.46521180        1.34509562        2.67347816
 C           -0.90151794        2.34258389        1.77727701
 C           -2.27782417       -0.82972176        1.86243175
 C           -2.39628038        0.55130955        1.88434829
 C           -1.30573921       -2.62871246        0.70464639
 C           -2.23720779       -1.51827980        0.58156395
 C            0.92869396       -3.02856550       -0.24833159
 C           -0.52175211       -2.97331338       -0.38690308
 C            2.24127241       -1.12914953       -1.10314275
 C            1.48750261       -2.27749508       -1.36222136
 C            2.07400975        1.24249711       -1.63173168
 C            2.29121957       -0.12413764       -2.06475806
 C            1.24207100        1.90457070       -2.62067959
 C            0.03904120        2.98005426       -0.77256226
 C            0.22063007        2.74467259       -2.19604275
 C           -1.84492372        2.49520172        0.68738566
 C           -2.61672445        1.26115494        0.63554111
 C           -1.39116161        3.03038000       -0.50725759
 C           -2.28888443       -0.78576159       -0.60738865
 C           -2.68353218        0.56118055       -0.56959912
 C           -0.80951896       -2.37090330       -1.67737920
 C            0.45493139       -2.24407816       -2.38327871
 C           -1.74317760       -1.34064105       -1.77557888
 C            1.59464821       -0.30904710       -3.32843405
 C            1.01787782        0.96847728       -3.71376740
 C            0.55336679       -1.31815728       -3.41159170
 C           -1.81826203       -0.64991813       -2.98165579
 C           -0.33358048        0.71861941       -4.18248395
 C           -0.66191490       -0.66081500       -3.86428622
 C           -1.10069401        2.65589953       -2.80188419
 C           -2.06904143        2.62216682       -1.72307220
 C           -2.70210620        1.31455476       -1.74115075
 C           -1.41373011        1.55096766       -3.68997093
 C           -2.36511035        0.68803332       -3.00117440
