54
Modified xyz file
 C            1.15690586       -0.22359055        3.93844627
 C            2.35107139       -0.50786659        3.16505986
 C            2.17562443       -1.80722931        2.53242982
 C            0.27677727       -1.37793989        3.83837511
 C            0.84339446       -2.28432202        2.85462692
 C           -1.07627372       -0.88861292        3.65283084
 C            0.37275164        0.95980427        3.62734133
 C           -1.02096151        0.56475217        3.60423311
 C            0.83123530        1.86668277        2.67703110
 C            2.76956415        0.42732171        2.13585936
 C            2.08384875        1.62747340        1.96979890
 C            2.56371554       -1.67733205        1.13633086
 C            3.13805994       -0.35489573        0.96766182
 C            1.73810659       -2.19112541        0.13670446
 C            0.04399748       -2.78345132        1.83217304
 C            0.59530423       -2.91035723        0.49251212
 C           -1.84449442       -1.34246461        2.50532486
 C           -1.34031161       -2.34145478        1.68843390
 C           -1.85718213        1.00302870        2.50264058
 C           -2.45392119       -0.17667056        1.89517227
 C           -0.10471149        2.47248999        1.73635308
 C           -1.43112059        2.03478635        1.66787553
 C            1.96312868        2.20789466        0.64090352
 C            0.62466249        2.75697352        0.50580185
 C            3.09432424        0.22968656       -0.28892488
 C            2.54530164        1.57107519       -0.44360420
 C            1.86954814       -1.71560838       -1.17203048
 C            2.61808248       -0.56117439       -1.41082616
 C            0.98708311       -2.16985731       -2.15162437
 C           -0.53523195       -2.94973380       -0.41705182
 C           -1.64411488       -2.30830775        0.26752849
 C           -0.32332087       -2.65206503       -1.74988159
 C           -2.71507398       -0.14540938        0.52687252
 C           -2.23471423       -1.17606918       -0.30073058
 C           -2.13164240        2.21933267        0.47861775
 C           -2.93598078        1.11410022       -0.01623365
 C           -0.04770827        2.68573137       -0.71307633
 C           -1.43806482        2.76152438       -0.67473130
 C            1.88255873        1.62660569       -1.73450658
 C            2.18559571        0.38367473       -2.42683446
 C            0.60707025        2.18003726       -1.84994654
 C            0.80243789       -1.39440872       -3.37049056
 C            1.34098245       -0.04736119       -3.43957133
 C           -1.29685560       -1.82484419       -2.43575008
 C           -2.13052005       -0.98695771       -1.68910172
 C           -0.62813253       -1.31468522       -3.62127009
 C           -3.05395142        1.26476213       -1.44904459
 C           -2.22606423        2.39927136       -1.83534589
 C           -2.67364740        0.15169571       -2.28690442
 C           -0.09365179        1.96674177       -3.03943287
 C            0.27175405        0.83489541       -3.87755212
 C           -0.92490957        0.02861867       -4.07303458
 C           -1.54024359        2.04194944       -3.05497180
 C           -2.03008185        0.73288513       -3.45446629
