54
Modified xyz file
 C            1.38284986       -0.11818823        4.09754550
 C            0.51285932       -1.28141014        4.08158310
 C            1.09065075       -2.25217472        3.17019486
 C            2.46600143       -0.35874224        3.16047792
 C            2.37211602       -1.73793292        2.71664593
 C            2.44282370        0.69764303        2.15670650
 C            0.62022879        1.00857184        3.59631605
 C            1.37054471        1.61400952        2.50810902
 C           -0.76755532       -0.87271464        3.52997159
 C           -0.73030208        0.55804099        3.30870353
 C            0.08558294       -2.58768528        2.17100288
 C           -1.06239103       -1.72412050        2.39572531
 C            0.50186785       -2.82115517        0.86064808
 C            2.75222396       -2.02339671        1.41606588
 C            1.87795503       -2.85516645        0.61218467
 C            2.63553584        0.35290171        0.81719370
 C            3.12838740       -0.92219560        0.54331531
 C            1.96670895        1.08327841       -0.18134843
 C            0.64545238        2.19641031        1.47988986
 C            1.19876430        2.18940709        0.20103857
 C           -1.32868483        1.06387947        2.16137419
 C           -0.74469280        2.18539835        1.59008886
 C           -1.68216705       -1.15943568        1.29040017
 C           -2.02557652        0.19931309        1.31132480
 C           -0.38867126       -2.55040847       -0.18975951
 C           -1.54650864       -1.80196450        0.06533600
 C            0.01212297       -2.76984490       -1.50920462
 C            2.37305027       -2.72152448       -0.74300246
 C            3.06651346       -1.43965695       -0.80698034
 C            1.42419498       -2.75788733       -1.83067713
 C            1.80927607        0.55382673       -1.47466571
 C            2.41244925       -0.64893266       -1.82382074
 C            1.65616604       -1.57242648       -2.63863132
 C            0.83463479        1.08538901       -2.32523828
 C            0.55891360        2.94884413       -0.77565577
 C            0.43154662        2.39973804       -2.11351300
 C           -1.47530654        2.85961091        0.62797423
 C           -0.73068463        3.51535612       -0.42718520
 C           -2.65811678        0.75341740        0.19071321
 C           -2.56259203        2.13744858       -0.01055722
 C           -2.36226564       -1.38532268       -0.98191763
 C           -3.01608782       -0.09138653       -0.86563490
 C           -0.63760936       -2.03853478       -2.57771328
 C            0.36575776       -1.13477334       -3.12715624
 C            0.07718298        0.22667225       -3.14530606
 C           -1.91092906       -1.53802891       -2.35788076
 C           -3.17701342        0.43085403       -2.21333447
 C           -1.23039056        0.56683854       -3.48767938
 C           -2.29077049       -0.33101017       -3.07175497
 C           -0.82109137        2.87614377       -2.67499078
 C           -1.56369730        3.53056716       -1.61407822
 C           -2.73329037        2.71285124       -1.33660624
 C           -1.71079263        1.91691277       -3.28780963
 C           -2.91517450        1.83269596       -2.46842742
