54
Modified xyz file
 C            1.45343995        0.03884173        3.97681698
 C            0.67167263       -1.17670890        3.85854234
 C            1.41275881       -2.10220217        3.02194030
 C            2.59185373       -0.08015218        3.08040775
 C            2.56141965       -1.39385620        2.48049522
 C            2.56755714        1.06317257        2.19812891
 C            0.63108226        1.14183280        3.50301438
 C            1.39008776        1.85629491        2.50979021
 C           -0.67021653       -0.80083289        3.45143988
 C           -0.65298308        0.61441609        3.11140994
 C           -1.38082827       -1.66019336        2.62672669
 C            0.72013076       -2.73522869        1.91431193
 C           -0.66706097       -2.69164433        1.87495342
 C            2.50266532       -1.48962067        1.03113431
 C            1.45865152       -2.44237978        0.69531352
 C            2.87794078        0.90479778        0.85151499
 C            2.64194862       -0.34489406        0.24384954
 C            2.70724781        2.05125318        0.08526270
 C            0.72838212        2.43801562        1.43445000
 C            1.56603625        2.88996071        0.42105295
 C           -1.21592763        1.02314459        1.90135404
 C           -0.56273875        1.97798984        1.09233414
 C           -2.36029851       -1.08756774        1.72239832
 C           -2.25834600        0.25865287        1.37390075
 C           -1.32459541       -2.81051421        0.58621300
 C           -2.57200725       -2.07245407        0.67888951
 C            0.76107693       -2.27708538       -0.49935073
 C           -0.57102301       -2.70759047       -0.58046413
 C            2.18282264       -0.40116781       -1.07972560
 C            1.26962226       -1.39381854       -1.45780125
 C            2.76423789        1.94599114       -1.35363534
 C            2.43121749        0.66844114       -1.93984162
 C            0.98915404        3.37186404       -0.80730524
 C            1.85093864        2.93813240       -1.89384929
 C           -1.13729044        2.34782078       -0.14186461
 C           -0.36266626        2.97316016       -1.11860436
 C           -2.92497194        0.70520631        0.24364595
 C           -2.30766208        1.72934348       -0.57260722
 C           -3.19607295       -1.67469193       -0.49489198
 C           -3.53818044       -0.26996424       -0.64851515
 C           -1.25989597       -2.59545477       -1.78520563
 C           -2.63895708       -2.13104925       -1.75813640
 C            0.67488934       -1.32990699       -2.71512637
 C           -0.61120455       -1.96846453       -2.91827260
 C            1.52479818        0.92748384       -3.04909469
 C            1.01787005        2.27335037       -2.87680278
 C           -0.36694950        2.43162839       -2.47172211
 C            0.61634395       -0.05410180       -3.40161953
 C           -2.39745038        1.30283570       -1.96194610
 C           -3.23983637        0.12075094       -2.01642352
 C           -2.76722964       -1.05111238       -2.72260757
 C           -1.52030211       -0.96226949       -3.45310907
 C           -1.26673836        1.41300481       -2.77220780
 C           -0.79441306        0.29754061       -3.47856099
