54
Modified xyz file
 C            1.46311203        0.08516811        4.08876411
 C            0.61109432       -1.06517165        3.83690353
 C            1.36989557       -1.98535187        3.02575945
 C            2.54683663        0.04024631        3.12120878
 C            2.57657551       -1.29626295        2.57961466
 C            2.37286835        1.15389677        2.20746513
 C            0.68160368        1.27590375        3.81418604
 C            1.37649452        2.03818895        2.79109858
 C           -0.65642781       -0.57600739        3.32747490
 C           -0.68593634        0.86042297        3.55364022
 C           -1.18214632       -1.08680513        2.13751962
 C            0.74650296       -2.54249215        1.84215512
 C           -0.53082231       -2.13267254        1.45500369
 C            2.64216718       -1.45993994        1.14127483
 C            1.78364597       -2.58347264        0.83394985
 C            2.36323565        0.93781195        0.82670655
 C            2.59556116       -0.34730952        0.29909208
 C            1.85714756        1.94904055        0.00298029
 C            0.61717000        2.83422359        1.94474995
 C            0.92184300        2.84405113        0.52356237
 C           -1.45644453        1.65007019        2.71141738
 C           -0.83217195        2.79960978        2.07332779
 C           -2.20225500       -0.36911804        1.50385081
 C           -2.29442502        1.00737046        1.71269747
 C           -2.78502180       -0.88279933        0.35083222
 C           -0.96157668       -2.48869266        0.17378521
 C           -2.21313806       -2.06613108       -0.25571799
 C            1.39580547       -2.75560636       -0.48091159
 C           -0.01954737       -2.92179975       -0.76491822
 C            2.38407588       -0.57812154       -1.06318688
 C            1.90174899       -1.82461193       -1.47527300
 C            1.88937715        1.78656120       -1.37741128
 C            2.29666328        0.50922763       -1.92310331
 C            0.72923171        2.21494459       -2.13853581
 C           -0.32356992        3.05198157       -0.20261998
 C           -1.40617630        2.94479272        0.74506153
 C           -2.36649047        1.88534392        0.55270269
 C           -0.45598352        2.45217395       -1.44888198
 C           -3.07821609        0.04067692       -0.73082663
 C           -2.47955991        1.29660382       -0.70071775
 C           -1.59060334        1.66574507       -1.72926582
 C           -2.51443537       -2.01539807       -1.68059794
 C           -3.11440839       -0.71945114       -1.96059818
 C           -0.19612197       -2.61227334       -2.17682689
 C            1.01119349       -1.92281654       -2.62320064
 C           -1.44629312       -2.22125313       -2.63995833
 C            1.64739098        0.36124835       -3.21932360
 C            0.71435070        1.46698294       -3.37618060
 C            0.93088985       -0.86373960       -3.51886136
 C           -1.71582196        1.06868529       -2.99012622
 C           -2.46650730       -0.16696881       -3.12940607
 C           -1.55320740       -1.17586851       -3.64359473
 C           -0.54578406        0.92986836       -3.83954139
 C           -0.35338929       -0.49070523       -4.08719866
