54
Modified xyz file
 C            1.32013175       -0.09522605        3.60998878
 C            2.54949326       -0.38064174        2.89374790
 C            2.42627043       -1.70826148        2.31052945
 C            0.47555449       -1.27409783        3.52300368
 C            1.07454595       -2.17965105        2.55947748
 C           -0.88583496       -0.83335338        3.29701269
 C            0.52074252        1.05146935        3.21475626
 C           -0.84759334        0.59929893        3.02424698
 C            1.05015008        1.99010283        2.34096881
 C            2.98141061        0.52561753        1.84484288
 C            2.31838259        1.73601018        1.66418852
 C            2.90664542       -1.64440067        0.94327709
 C            3.34061361       -0.27853569        0.68733954
 C            2.21542846       -2.34016695       -0.03956353
 C            0.29958134       -2.64463972        1.49585621
 C            0.89976179       -2.89186770        0.26036434
 C           -1.70805133       -1.63346751        2.51954384
 C           -1.09203386       -2.56110351        1.57633332
 C           -2.82800109       -1.00531182        1.84840677
 C           -1.62296363        1.12453257        1.98525932
 C           -2.74934053        0.41498414        1.56484265
 C            0.16898734        2.64713931        1.39384772
 C           -1.13058470        2.17561269        1.20068642
 C            2.23717335        2.32158913        0.33469111
 C            0.97366382        3.03564674        0.24486320
 C            3.21753173        0.25805631       -0.59076102
 C            2.70920746        1.61118204       -0.76424205
 C            2.18608638       -1.82766460       -1.39985512
 C            2.68812306       -0.55924772       -1.67211329
 C            0.10400208       -2.83077110       -0.95745310
 C            0.93713385       -2.25684240       -2.00708036
 C           -1.88765258       -2.55104540        0.35652786
 C           -3.03635438       -1.69275226        0.58708511
 C           -1.25182379       -2.51477780       -0.88140608
 C           -3.27456820        0.61355881        0.22485554
 C           -3.37233969       -0.69386963       -0.41107086
 C           -1.82721371        2.57704652        0.06062290
 C           -2.84144674        1.70748800       -0.50912756
 C            0.35616417        3.19637487       -0.98885052
 C           -1.09440490        3.17528985       -1.04309110
 C            1.98239971        1.65895015       -2.02423551
 C            1.98019835        0.31877935       -2.59186166
 C            0.85650202        2.46769337       -2.14644365
 C            0.35319784       -1.48605719       -3.00381643
 C            0.85849116       -0.14678536       -3.27061253
 C           -1.88109944       -1.88188260       -1.95523399
 C           -2.89346374       -0.86526620       -1.70326389
 C           -1.09328300       -1.44339212       -3.09392099
 C           -2.55569206        1.56185361       -1.92938101
 C           -1.49204424        2.49564244       -2.26491895
 C           -0.28815607        2.00676834       -2.91819523
 C           -0.28281800        0.73239998       -3.47619375
 C           -2.56346245        0.29840892       -2.51069421
 C           -1.48734821       -0.08041647       -3.41377999
