54
Modified xyz file
 C            1.51909399        0.06528964        3.85113880
 C            0.71439313       -1.13323418        3.68397751
 C            1.33500271       -1.94176669        2.64728022
 C            2.56577798        0.03171494        2.84830908
 C            2.60253717       -1.30788109        2.29833528
 C            2.35709663        1.13852539        1.93011428
 C            0.67000680        1.20337155        3.55942511
 C            1.17225169        1.85684760        2.35898892
 C           -0.66649226       -0.72006096        3.51839807
 C           -0.70392491        0.73766373        3.56142087
 C           -1.45875637       -1.40113509        2.60145518
 C            0.54257997       -2.50177384        1.64059176
 C           -0.84289994       -2.34282939        1.67405557
 C            1.14571364       -2.91845275        0.45671423
 C            3.08193581       -1.45531580        1.00634832
 C            2.50762906       -2.49935068        0.18244693
 C            2.54846927        0.91337505        0.57433280
 C            3.18128157       -0.26670632        0.16966753
 C            1.79400010        1.63568796       -0.34975974
 C            0.24986173        2.28929159        1.40770149
 C            0.56724922        2.20322393        0.04114592
 C           -1.60705298        1.41683152        2.75673145
 C           -1.08418141        2.38225646        1.80428023
 C           -2.50935348       -0.69169484        1.88795247
 C           -2.64910079        0.67772339        2.06378316
 C           -1.59497639       -2.29997471        0.42773630
 C           -2.61323101       -1.26691441        0.55286319
 C            0.40221921       -2.85563227       -0.79441131
 C           -0.93723243       -2.47132276       -0.78860257
 C            2.57623140       -2.06114810       -1.20105388
 C            3.08074153       -0.70132687       -1.21532674
 C            1.29214932       -2.33064458       -1.82238045
 C            2.09777989        1.47475198       -1.69743782
 C            2.56223442        0.17765469       -2.15248426
 C            1.18795917        1.97424287       -2.70379016
 C           -0.38159121        2.59675166       -0.92328884
 C           -0.08856585        2.49952485       -2.28093089
 C           -2.11331295        2.58808276        0.81317543
 C           -3.06841466        1.49398271        0.94031086
 C           -1.72762912        2.66463098       -0.57620398
 C           -2.91185982       -0.46645462       -0.54947016
 C           -3.20311221        0.88755775       -0.37366670
 C           -2.68113640        1.86102547       -1.32018380
 C           -1.47851742       -1.89802539       -1.93767911
 C           -2.55163948       -0.92235679       -1.81443852
 C            0.78837519       -1.42684242       -2.75330621
 C            1.55719858       -0.30414916       -3.08680057
 C            0.93232161        0.88668971       -3.63957489
 C           -0.58573895       -1.43972133       -2.99071464
 C           -1.09984502        1.95123617       -3.17318607
 C           -2.33661013        1.44552441       -2.59818655
 C           -2.41654000        0.02892304       -2.90723378
 C           -0.48497184        0.87603122       -3.93403594
 C           -1.23540377       -0.33369798       -3.67453344
