54
Modified xyz file
 C            1.27281896       -0.04062203        3.53695721
 C            2.55135047       -0.25819595        2.88832595
 C            2.51370770       -1.57279570        2.27146683
 C            0.43762335       -1.20296714        3.27269616
 C            1.15259245       -2.07227093        2.36663263
 C           -0.86779186       -0.73043860        2.87685336
 C            0.50376937        1.14639315        3.20112888
 C           -0.85377931        0.72433197        2.91047789
 C            1.07893590        2.14425739        2.42933966
 C            3.00012077        0.69119781        1.88649091
 C            2.37591790        1.92850189        1.79221241
 C            3.11726314       -1.47040476        0.95609276
 C            3.31007047       -0.05143551        0.66927243
 C            2.63352498       -2.29822438       -0.04491053
 C            0.52240647       -2.51253961        1.20472478
 C            1.32628328       -2.91607626        0.13676306
 C           -1.53646726       -1.35633381        1.83105743
 C           -0.83745273       -2.23598356        0.98720573
 C           -2.67801658       -0.71236887        1.36045509
 C           -1.62799458        1.41110427        1.97467763
 C           -2.74652607        0.73490534        1.48420220
 C            0.24322730        2.88647828        1.50329607
 C           -1.06315460        2.47072650        1.23994375
 C            2.34846195        2.58834560        0.50365518
 C            1.08250238        3.28945071        0.38734542
 C            2.96526417        0.47014130       -0.58630241
 C            2.52624319        1.78842623       -0.69421481
 C            2.69891432       -1.82675784       -1.41135686
 C            2.70945611       -0.39570845       -1.64772269
 C            0.74627926       -3.11642789       -1.17933011
 C            1.57401324       -2.39414031       -2.13353564
 C           -1.44922970       -2.70802738       -0.17629033
 C           -0.63173427       -3.07013717       -1.32389268
 C           -3.26414895       -1.08327712        0.08548799
 C           -2.64982803       -2.06046675       -0.68177517
 C           -3.47965029        1.24813371        0.34609545
 C           -3.73193034        0.13753684       -0.55856404
 C           -1.63557253        2.88221834        0.03203565
 C           -2.89473719        2.32278705       -0.41734389
 C            0.58270423        3.09063736       -0.96122335
 C            1.42876848        2.09486402       -1.60139055
 C           -0.78741674        3.01660400       -1.14177253
 C            1.61891015       -0.08709360       -2.56300654
 C            0.97373120       -1.33681440       -2.93125496
 C            0.85896792        1.06190614       -2.34750682
 C           -1.18355095       -2.39283945       -2.48583759
 C           -2.45683813       -1.81403119       -2.10102751
 C           -0.39670808       -1.35647994       -3.13658686
 C           -3.21271403        0.49810406       -1.86990810
 C           -2.69978077        1.85286399       -1.78214364
 C           -1.31282595        2.10460033       -2.13821357
 C           -0.52172240        1.04833617       -2.58727040
 C           -2.48915896       -0.44540942       -2.58731520
 C           -1.14509882       -0.11458441       -3.04519572
