54
Modified xyz file
 C            1.53866177        0.00993121        3.74011618
 C            0.73126549       -1.19565648        3.71992784
 C            1.38415173       -2.15707972        2.84544330
 C            2.58298769       -0.13989874        2.74192751
 C            2.56143546       -1.51313670        2.27416549
 C            2.43613197        0.92931094        1.76540478
 C            0.69199236        1.11299606        3.32683720
 C            1.31327254        1.75049384        2.18215695
 C           -0.64475580       -0.81008077        3.44668676
 C           -0.66502987        0.61945125        3.17357528
 C           -1.43820402       -1.65335310        2.68255970
 C            0.59698707       -2.99090414        2.05655314
 C           -0.85065523       -2.85115142        2.10025833
 C            0.97246245       -3.24835149        0.67507155
 C            2.90189595       -1.75304357        0.95007394
 C            2.17915592       -2.76071776        0.18934017
 C            2.59247568        0.63253202        0.40899267
 C            3.11288683       -0.61677602        0.06448718
 C            1.89414571        1.39543117       -0.54545454
 C            0.48661332        2.26207832        1.19836227
 C            0.98995173        2.36718363       -0.09141481
 C           -1.41880266        1.10812191        2.10728443
 C           -0.89515023        2.17669331        1.37007071
 C           -2.33654445       -1.07990100        1.69654706
 C           -2.41185329        0.30109969        1.53549088
 C           -1.35603789       -2.98615353        0.74272032
 C           -0.22670224       -3.12693530       -0.14573236
 C           -2.28323597       -1.90580135        0.50030606
 C           -0.18457475       -2.37266015       -1.31653888
 C            2.26436203       -2.38423247       -1.21071337
 C            2.96023593       -1.10741585       -1.28528943
 C            1.03670662       -2.24327100       -1.97409520
 C            1.90759707        1.01766554       -1.90202564
 C            2.25205086       -0.28701236       -2.24013281
 C            1.24589788       -1.12678643       -2.87132731
 C            1.11596058        1.70307927       -2.82112449
 C            0.29297107        3.16361547       -0.99107243
 C            0.38687508        2.88062184       -2.40407793
 C           -1.71366127        2.83231841        0.45726019
 C           -1.09577924        3.47184780       -0.69508100
 C           -3.06631823        0.75705083        0.39395817
 C           -2.89460370        2.13837528       -0.00871090
 C           -2.28530344       -1.26593763       -0.73506425
 C           -1.24650740       -1.51364658       -1.64983449
 C           -2.99066935       -0.06594864       -0.80474893
 C            0.13985998       -0.50572268       -3.42505679
 C            0.23429051        0.92158552       -3.67367728
 C           -1.16257336       -0.75356479       -2.82158322
 C           -0.96717636        2.78060530       -2.93207844
 C           -1.88594832        3.14086357       -1.87012719
 C           -2.89886077        2.18464923       -1.46158534
 C           -2.83786902        0.81293579       -1.94885946
 C           -1.09873517        1.47998799       -3.56370722
 C           -1.94772925        0.46461448       -2.95646441
