54
Modified xyz file
 C            1.11961436       -0.18145369        3.86863757
 C            2.34601062       -0.32917177        3.10716774
 C            2.22775323       -1.54679213        2.31891203
 C            0.28812398       -1.34035522        3.58217085
 C            0.86492934       -2.01734183        2.43763127
 C           -1.08064824       -0.88887652        3.49727767
 C            0.30180024        1.00511329        3.67600236
 C           -1.07872477        0.56639776        3.57228460
 C            0.74834594        2.02540387        2.84096387
 C            2.75659504        0.73924127        2.21280279
 C            2.06372350        1.94285098        2.21835387
 C            2.73549992       -1.26818018        0.99205520
 C            3.13353490        0.13095689        0.94458482
 C            2.07687172       -1.79761966       -0.11134593
 C            0.11787999       -2.17107754        1.26999478
 C            0.79123920       -2.33208456        0.05388284
 C           -1.85979478       -1.24885070        2.32861349
 C           -1.26946683       -1.95006482        1.27518526
 C           -1.89530616        1.05006842        2.46965137
 C           -2.66614356       -0.08968194        2.01030706
 C           -0.16315738        2.59265940        1.85762349
 C           -1.32954379        1.90872025        1.52728248
 C            2.01650968        2.72697472        0.99994470
 C            0.64195577        3.16996332        0.80399079
 C            2.97621480        0.82745388       -0.25660850
 C            2.46373041        2.12951216       -0.24687257
 C            2.45101784       -1.29840162       -1.35370502
 C            2.90382477        0.08237056       -1.43349206
 C            1.64724904       -1.58564467       -2.52794272
 C            0.06965589       -2.75131608       -1.05926933
 C            0.51460818       -2.37569760       -2.39332184
 C           -1.97763536       -2.02795746        0.07150340
 C           -1.37735155       -2.64720851       -1.02499647
 C           -3.23012223       -0.03225283        0.75092801
 C           -3.08627782       -1.19130019       -0.10875063
 C           -1.75499692        1.83679867        0.19314077
 C           -2.91170343        1.11011579       -0.08620452
 C            0.28330680        2.89687489       -0.57275828
 C            1.50749837        2.54089464       -1.26641422
 C           -0.88125311        2.18549684       -0.85190110
 C            2.29957460        0.67464850       -2.61247574
 C            1.56449371       -0.36556551       -3.31381179
 C            1.41685568        1.81141892       -2.44065909
 C           -1.02344583        1.61066170       -2.12185132
 C            0.25540529        0.16517159       -3.65108120
 C            0.10255261        1.41772030       -2.92390403
 C           -0.66482993       -2.05680101       -3.18401967
 C           -1.83375957       -2.36164639       -2.37746086
 C           -0.82293046       -0.70912298       -3.71419779
 C           -3.44887212       -0.72430705       -1.43475431
 C           -3.19714725        0.71062095       -1.45126702
 C           -2.20360210        0.96280636       -2.47008228
 C           -2.79987808       -1.30463111       -2.59012733
 C           -2.12978414       -0.22751235       -3.30161748
