54
Modified xyz file
 C            1.50820288        0.00326893        3.99669248
 C            0.72239505       -1.18734222        3.72596968
 C            1.52517613       -2.04216420        2.88069139
 C            2.59766190        0.03298058        3.03429752
 C            2.65800580       -1.26180063        2.39946454
 C            2.41411119        1.19773308        2.19589276
 C            0.65951023        1.15324022        3.74139956
 C            1.29310303        1.96475918        2.71873462
 C           -0.58078093       -0.76148653        3.23967902
 C           -0.68154486        0.66937073        3.48871550
 C           -1.07824773       -1.29453878        2.04345850
 C            0.89677372       -2.63073387        1.71927527
 C           -0.46192795       -2.42695379        1.48873537
 C            2.64319794       -1.32747417        0.94707857
 C            1.80228170       -2.45233772        0.59864238
 C            2.55606246        1.09927049        0.81464136
 C            2.53118164       -0.16421647        0.19043541
 C            2.17254104        2.22045604        0.09085479
 C            0.48416122        2.65397205        1.81429762
 C            1.03494449        2.98799928        0.57307191
 C           -1.48819077        1.42768260        2.65997572
 C           -0.90492199        2.56584739        1.95852849
 C           -1.97401858       -0.53416892        1.27402946
 C           -2.32934223        0.74282382        1.70009974
 C           -2.35182878       -0.96928178       -0.00297031
 C           -0.94892770       -2.93848987        0.29280059
 C           -2.07086977       -2.28815721       -0.34919674
 C            1.24407444       -2.51409657       -0.67164834
 C            0.02288938       -3.17884114       -0.75858832
 C            2.10388625       -0.28739823       -1.13808559
 C            1.51793372       -1.48335697       -1.58405197
 C            2.08907730        2.14437111       -1.34921684
 C            2.07945489        0.83536235       -1.96105218
 C            0.18086266        3.27608588       -0.57201300
 C            0.87521259        2.83291805       -1.76520897
 C           -1.77358558        2.84218378        0.82673487
 C           -2.70179751        1.72629754        0.70913511
 C           -1.18626754        3.07514769       -0.47826160
 C           -2.72443187       -0.03523329       -0.99058618
 C           -2.73248753        1.31711722       -0.67584382
 C           -1.85602202        2.19893558       -1.43080205
 C           -2.55016379       -0.33794004       -2.33806184
 C           -2.03242981       -2.68987534       -1.74603603
 C           -0.69483735       -3.20293056       -2.01336976
 C           -2.33287307       -1.70537104       -2.75776034
 C            0.94338131       -1.52900033       -2.86088807
 C           -0.14538329       -2.45734053       -3.12327648
 C           -1.23848712       -1.70680153       -3.71500812
 C            1.12013890        0.89731645       -3.04445973
 C            0.18734824        1.96708543       -2.70813500
 C           -1.16925423        1.67383373       -2.52997062
 C           -1.68733161        0.52566449       -3.13057112
 C            0.62127855       -0.28859818       -3.55168285
 C           -0.78889504       -0.33579378       -3.87658634
