54
Modified xyz file
 C            1.57812360        0.03569465        3.71948311
 C            0.77820266       -1.16826245        3.60641774
 C            1.40057080       -2.03733435        2.62193242
 C            2.67435620       -0.07079920        2.77210114
 C            2.62365917       -1.38484151        2.16704851
 C            2.62521593        1.09012698        1.90602255
 C            0.74343019        1.15298328        3.30928669
 C            1.43723589        1.85626708        2.25998033
 C           -0.59585856       -0.76181574        3.38934959
 C           -0.57860330        0.64668849        3.02131142
 C           -1.41225028       -1.61405930        2.66673392
 C            0.58183916       -2.70586614        1.70874080
 C           -0.79924641       -2.70290305        1.91429956
 C            1.09233896       -3.06942112        0.46008775
 C            3.00902163       -1.51376744        0.84116384
 C            2.36925174       -2.53036413        0.02858776
 C            2.94871979        0.95799781        0.55352326
 C            3.17103480       -0.31861897        0.01719869
 C            2.53752242        1.97951627       -0.30386357
 C            0.70761633        2.42269216        1.22562043
 C            1.46226697        2.84734198        0.14476658
 C           -1.21795850        1.04771577        1.84692632
 C           -0.62091406        2.00730082        1.00418831
 C           -2.42881897       -1.03519995        1.81049802
 C           -2.29843316        0.28815696        1.38859012
 C           -1.68914859       -3.01632383        0.80861300
 C           -2.77252683       -2.04697211        0.83130425
 C            0.22253332       -3.09305504       -0.70913785
 C           -1.15217184       -3.05291643       -0.53830411
 C            2.19526270       -1.99639066       -1.31328511
 C            2.67546040       -0.63222489       -1.31851919
 C            0.82864889       -2.24522295       -1.72103021
 C            2.23780870        1.65989955       -1.68632606
 C            1.96009148        0.33702286       -2.00862533
 C            0.79312534        3.36621631       -1.02314598
 C            1.38748570        2.72153595       -2.18599281
 C           -1.29996652        2.42864672       -0.15372382
 C           -0.63698707        3.19128712       -1.12177639
 C           -2.99519518        0.69811744        0.25629370
 C           -2.54104928        1.87166858       -0.46460718
 C           -3.02063633       -1.61706605       -0.52813760
 C           -1.94156697       -2.14331976       -1.35445672
 C           -3.40716889       -0.30042743       -0.72865301
 C            0.08656214       -1.20215533       -2.26872714
 C            0.72316046        0.00819330       -2.58916729
 C           -1.31215258       -1.29058367       -2.26486019
 C            0.30950311        2.37649998       -3.08640389
 C           -0.90168359        2.95458298       -2.53121168
 C            0.03103325        0.97291908       -3.32152338
 C           -2.92094969        1.68429995       -1.85693938
 C           -3.17338909        0.26979583       -2.03953732
 C           -2.07271445       -0.26423914       -2.82072233
 C           -1.99366492        2.07987216       -2.89588043
 C           -1.40802668        0.86111056       -3.44551184
