54
Modified xyz file
 C            1.44007591        0.05147495        4.10849298
 C            0.62703983       -1.14244688        3.95831854
 C            1.38260971       -2.08612837        3.15802844
 C            2.53535107       -0.03899191        3.15669216
 C            2.56668419       -1.39694883        2.66320731
 C            2.38209294        1.04449739        2.19750660
 C            0.62841767        1.18989140        3.72405109
 C            1.37744456        1.94701383        2.73994751
 C           -0.69083298       -0.73613919        3.50093024
 C           -0.69233991        0.71030315        3.34812443
 C           -1.34892941       -1.50924187        2.55807146
 C            0.73257807       -2.72286547        2.02265069
 C           -0.62851679       -2.55224172        1.82971633
 C            2.61824038       -1.59923523        1.23271200
 C            1.62046978       -2.59432451        0.88322475
 C            2.38688126        0.76450485        0.82341611
 C            2.77355323       -0.50999078        0.37869783
 C            1.74648595        1.65519366       -0.05556813
 C            0.64981782        2.71672407        1.85258980
 C            1.07632500        2.75645498        0.47037504
 C           -1.31126002        1.30124764        2.24250946
 C           -0.78946871        2.51665686        1.80250081
 C           -2.22200652       -0.85194738        1.60754333
 C           -2.08021561        0.51552950        1.36543684
 C           -1.14995826       -2.57237008        0.47477299
 C           -2.35249252       -1.75952369        0.48525002
 C            1.11121449       -2.55331350       -0.41378239
 C           -0.27997255       -2.48952063       -0.61701071
 C            2.70160805       -0.79834922       -0.97774687
 C            1.95408894       -1.98543224       -1.36292066
 C            1.59383822        1.32634493       -1.41036815
 C            2.31324081        0.24226887       -1.90320332
 C            0.57164123        1.91647958       -2.18228586
 C           -0.04068499        3.31059935       -0.25956336
 C           -1.23360090        3.07413345        0.54593516
 C           -0.31401555        2.80901718       -1.58645882
 C           -2.53677547        1.03532117        0.14247325
 C           -2.15411657        2.31161510       -0.26670384
 C           -1.73772876        2.52161614       -1.64268103
 C           -2.81449925       -1.25619321       -0.71321755
 C           -3.08119373        0.16883611       -0.80872431
 C           -0.79759406       -2.07448562       -1.85607969
 C           -2.12236751       -1.63160355       -1.93094838
 C            1.47494334       -1.78229622       -2.70870563
 C            1.87554954       -0.44018661       -3.10571905
 C            0.05525837       -1.89255378       -2.94753713
 C            0.16140380        1.33583035       -3.38411371
 C            0.78771612        0.12454717       -3.86733033
 C           -0.25339584       -0.88832594       -3.95241510
 C           -2.20155492        1.65861043       -2.62553574
 C           -3.00498558        0.51711540       -2.22165780
 C           -2.51100434       -0.65282711       -2.93316909
 C           -1.26436122        1.20117394       -3.63990487
 C           -1.53069834       -0.20551796       -3.89982364
