54
Modified xyz file
 C            1.52477681       -0.01529516        4.00227050
 C            0.71346496       -1.19537885        3.75376696
 C            1.49517647       -2.08033592        2.92729080
 C            2.59875708       -0.01610168        3.02390464
 C            2.67315950       -1.34578380        2.47457570
 C            2.37383805        1.08991306        2.11668096
 C            0.69157756        1.14380141        3.74195220
 C            1.29247856        1.90111474        2.65923296
 C           -0.57408642       -0.74555345        3.26101518
 C           -0.66554570        0.67436609        3.56139490
 C           -1.06395905       -1.21256429        2.03552962
 C            0.88292811       -2.64500059        1.74216230
 C           -0.38403944       -2.22290492        1.32706376
 C            2.72747853       -1.50014240        1.03357625
 C            1.94158658       -2.68394583        0.75756968
 C            2.44270628        0.89998915        0.73555788
 C            2.57029339       -0.39140376        0.19179511
 C            1.96029412        1.93047147       -0.05791971
 C            0.44926202        2.56768974        1.77152258
 C            0.91481047        2.79262012        0.47467942
 C           -1.50390293        1.44924498        2.78089170
 C           -0.92664769        2.55301060        2.02399278
 C           -2.10384925       -0.50347347        1.42407340
 C           -2.41526967        0.77901031        1.87574010
 C           -2.61469546       -0.93472180        0.20405245
 C           -0.76822156       -2.53676613        0.01670319
 C           -1.94325866       -2.00375544       -0.50729080
 C            1.58345721       -2.91559385       -0.55171361
 C            0.17532890       -3.10522838       -0.84321471
 C            2.22840286       -0.63611950       -1.15038593
 C            2.03853029       -1.96616532       -1.54376907
 C            1.68013769        1.69603713       -1.45734722
 C            1.79975340        0.41362474       -1.97986280
 C           -0.00753256        3.09848029       -0.61046960
 C            0.53806666        2.52162423       -1.82835181
 C           -1.86855878        2.86226994        0.96029668
 C           -2.84655573        1.78359201        0.92056167
 C           -1.37781199        3.06167560       -0.38811429
 C           -3.07388557        0.04283290       -0.77717954
 C           -3.03159010        1.39605142       -0.46433114
 C           -2.23255908        2.29615480       -1.28330792
 C           -2.05689059       -1.72746634       -1.93513690
 C           -2.63913711       -0.40075632       -2.09071562
 C            0.04849796       -2.92644291       -2.28112434
 C            1.27324092       -2.27706433       -2.73344514
 C           -1.06897717       -2.16925997       -2.80812607
 C            1.22231954        0.15531746       -3.22688385
 C            0.90426475       -1.20142704       -3.61886830
 C           -0.53554337       -1.26753507       -3.81536815
 C           -0.32448251        2.07364241       -2.82078055
 C           -1.72719136        1.84863960       -2.49943789
 C           -2.07601469        0.51817624       -2.97306590
 C            0.11146458        0.97995228       -3.67022405
 C           -1.02584681        0.09688378       -3.88141844
