54
Modified xyz file
 C            1.18346068       -0.16409812        3.89063823
 C            2.35568744       -0.46519338        3.09060077
 C            2.17726011       -1.79235469        2.52137970
 C            0.30097254       -1.32002212        3.83817684
 C            0.84461002       -2.24828919        2.86146325
 C           -1.05623222       -0.83397664        3.67510676
 C            0.39153708        1.01241133        3.57462008
 C           -1.00253087        0.61789082        3.59494930
 C            0.82554027        1.89675757        2.59257909
 C            2.72837947        0.43310009        2.01091658
 C            2.04613663        1.62699864        1.83980265
 C            2.56364442       -1.73021540        1.12377980
 C            3.02757615       -0.37885327        0.84630557
 C            1.80112623       -2.38453850        0.15752611
 C            0.02836467       -2.75045869        1.85330219
 C            0.55795471       -2.91784490        0.50463647
 C           -1.85126737       -1.30999765        2.55579345
 C           -1.35913400       -2.31383065        1.73709925
 C           -1.86663380        1.03337249        2.50537931
 C           -2.49075595       -0.15781714        1.94863169
 C           -0.13863411        2.49863907        1.67852845
 C           -1.45721770        2.04074149        1.63311774
 C            1.86150780        2.14276394        0.49664922
 C            0.56391132        2.79800938        0.43854106
 C            2.84014863        0.12908693       -0.43819187
 C            2.30012760        1.41739479       -0.60878427
 C            2.04256829       -2.06064722       -1.17417949
 C            2.72985851       -0.81341518       -1.45962450
 C            0.97416562       -2.18655650       -2.15277774
 C           -0.56048241       -2.80144895       -0.42073306
 C           -1.70310282       -2.30108697        0.32796209
 C           -0.33901444       -2.33332966       -1.71296735
 C           -2.81058898       -0.15858011        0.59188186
 C           -2.45721428       -1.26030122       -0.20924663
 C           -2.18072779        2.19879759        0.45488500
 C           -3.00856786        1.09208522        0.00843112
 C           -0.13678936        2.80898092       -0.76434982
 C           -1.52716490        2.73943575       -0.72645337
 C            1.83793140        1.83058634       -1.85843356
 C            0.54830869        2.50184878       -1.94299305
 C            2.36632708       -0.40667324       -2.80024121
 C            1.27824670       -1.26918315       -3.23904693
 C            1.96633328        0.96308028       -3.01288552
 C           -0.16124776        1.96103926       -3.09718929
 C            0.22455909       -0.42614988       -3.76732895
 C            0.68957104        0.95121916       -3.70693069
 C           -1.37760207       -1.67279340       -2.37474143
 C           -2.50223230       -1.16643260       -1.60034007
 C           -1.09256317       -0.70755857       -3.43076707
 C           -3.17758359        1.21772685       -1.42352974
 C           -2.26199524        2.25269132       -1.88281317
 C           -1.52760887        1.72887011       -3.01698296
 C           -2.97523678        0.04556846       -2.23997213
 C           -2.03368685        0.39255044       -3.29117971
