54
Modified xyz file
 C            1.36418279        0.01141173        4.21052636
 C            0.59376411       -1.16189257        3.84553516
 C            1.46915975       -2.03935098        3.10387428
 C            2.60539706       -0.02213467        3.44904301
 C            2.64217357       -1.27053710        2.71733849
 C            2.69571149        1.21437737        2.70420562
 C            0.61678549        1.18036017        3.78239900
 C            1.52895663        2.01825480        3.04156818
 C           -0.63099739       -0.71931047        3.20017831
 C           -0.59670470        0.73164458        3.11623262
 C           -1.11661866       -1.42459633        2.10369902
 C            0.94175242       -2.64357744        1.90110665
 C           -0.41740647       -2.54909233        1.63127616
 C            2.68449214       -1.24694007        1.26069364
 C            1.85359740       -2.34491757        0.81121295
 C            2.77931147        1.16986690        1.25036909
 C            2.62902547       -0.03724165        0.56797395
 C            1.05131361        2.59922012        1.80820673
 C            2.03981867        2.32160096        0.78206264
 C           -0.99854387        1.34635895        1.92403350
 C           -0.28866461        2.46361202        1.45466755
 C           -1.98355891       -0.75637879        1.23894370
 C           -1.81675008        0.62396063        1.04055208
 C           -2.70758429       -1.51813904        0.32973838
 C           -0.81454740       -3.10099822        0.41969521
 C           -2.12605651       -2.77059934       -0.09664627
 C            1.31958616       -2.30574724       -0.47161012
 C            0.12821624       -3.00353067       -0.68514863
 C            2.08182573       -0.01717643       -0.71889673
 C            1.61250431       -1.21236510       -1.29010234
 C            1.59353178        2.34741861       -0.53050459
 C            1.80986181        1.21899575       -1.32913514
 C           -0.62435322        2.99373718        0.21589567
 C            0.44748316        3.10219478       -0.75797723
 C           -2.29520155        1.24306257       -0.12376444
 C           -1.77119642        2.47382611       -0.49692250
 C           -3.28102722       -0.88721712       -0.83784852
 C           -2.98977827        0.50690147       -1.08141080
 C           -2.03939945       -2.74769936       -1.54672230
 C           -0.63097465       -2.78809149       -1.90685473
 C           -2.85599267       -1.64276512       -2.00985880
 C            1.11056418       -1.21089700       -2.58817028
 C           -0.13734475       -1.90442488       -2.85964395
 C            1.41276802        1.25922376       -2.66656390
 C            1.10074561        0.02099770       -3.34898332
 C           -0.14977624        3.10821152       -2.07548056
 C           -1.55098139        2.75197872       -1.91073576
 C            0.41871150        2.23683761       -3.08160028
 C           -2.62375185        0.63273161       -2.48465838
 C           -2.29081783       -0.70229484       -2.96066766
 C           -1.03225601       -0.95198263       -3.50367129
 C           -0.21785113        0.16206423       -3.95407642
 C           -1.86550296        1.72549754       -2.88911593
 C           -0.67760204        1.51555103       -3.70425709
