54
Modified xyz file
 C            1.49376430       -0.11769354        4.05845814
 C            0.64314605       -1.29083855        4.11825807
 C            1.17765401       -2.26298252        3.18620816
 C            2.47975512       -0.33091675        3.00917685
 C            2.23470546       -1.62393303        2.41779490
 C            2.44987562        0.82290004        2.14617479
 C            0.66818700        1.00281359        3.64731758
 C            1.39719238        1.70894629        2.62245531
 C           -0.67136535       -0.91456871        3.62659474
 C           -0.64035475        0.50101606        3.29668168
 C            0.05580630       -2.81362494        2.45049534
 C           -1.03706487       -1.85865797        2.58117004
 C            0.32300383       -3.31562335        1.18936644
 C            2.19344736       -1.75284915        1.02962854
 C            1.56179762       -2.89717307        0.54976759
 C            2.56842027        0.65156712        0.76803196
 C            2.25804884       -0.60411512        0.20778713
 C            2.35676863        1.80191752        0.00993168
 C            0.68452007        2.39084946        1.64849486
 C            1.44647251        2.79062532        0.56492785
 C           -1.18756611        0.90530522        2.08377430
 C           -0.65104230        2.01465960        1.40937012
 C           -1.64693174       -1.36401852        1.42754292
 C           -1.96503196       -0.00664473        1.37323352
 C           -0.69395917       -3.18227453        0.16868511
 C           -1.57082158       -2.09782328        0.23657452
 C            1.37924713       -3.06569583       -0.87230788
 C           -0.00688708       -3.46418649       -1.07311184
 C            1.86632119       -0.68727002       -1.14560389
 C            1.61857262       -1.92794490       -1.72693651
 C            2.03451948        1.68977239       -1.39584582
 C            1.56133968        0.47337813       -1.86797932
 C            0.79324721        3.46241889       -0.52780269
 C            1.35075166        2.91880938       -1.75437510
 C           -1.30217848        2.46566141        0.24746815
 C           -0.64322426        3.34225302       -0.62328406
 C           -2.71596503        0.45961051        0.31032154
 C           -2.46049919        1.80358821       -0.17318918
 C           -2.12392852       -1.56362887       -0.93729032
 C           -2.88697943       -0.40051932       -0.84651093
 C           -0.46948911       -2.81413177       -2.27460910
 C            0.63450524       -2.01232100       -2.78355932
 C           -1.61697756       -1.93274080       -2.18812781
 C            0.64723156        0.43176871       -2.93872275
 C            0.06439141       -0.78117699       -3.28733205
 C           -1.38236898       -0.90677425       -3.18729785
 C            0.27434819        2.85917079       -2.71607162
 C           -0.93379393        3.32197524       -2.04721704
 C           -0.04076786        1.58371311       -3.32080925
 C           -2.87014771        1.83673843       -1.56849507
 C           -3.02637364        0.45991405       -2.01298535
 C           -2.14654928        0.25164711       -3.15068435
 C           -2.03848299        2.52150019       -2.53402554
 C           -1.48828986        1.51760821       -3.43151714
