54
Modified xyz file
 C            1.45596543       -0.22538368        4.08953699
 C            0.61458706       -1.40642360        4.08730697
 C            1.16873727       -2.33041606        3.11879679
 C            2.44612745       -0.37690692        3.03341275
 C            2.21277643       -1.64041340        2.37715099
 C            2.40824374        0.81894604        2.22978925
 C            0.62109567        0.90450009        3.72986234
 C            1.35962646        1.68106788        2.75919947
 C           -0.69845395       -1.01998128        3.59639906
 C           -0.67244858        0.40170811        3.32062291
 C            0.05661863       -2.86702315        2.36106745
 C           -1.04273961       -1.92302902        2.51593018
 C            0.33378994       -3.31698321        1.08152073
 C            2.16547059       -1.69910837        0.98374417
 C            1.54834949       -2.82579482        0.44606038
 C            2.52119579        0.71790553        0.84421452
 C            2.23006803       -0.51138313        0.21881104
 C            2.30377936        1.90221741        0.14542387
 C            0.64527804        2.42178634        1.82831309
 C            1.38987537        2.86060873        0.74253378
 C           -1.17753171        0.86298314        2.11070232
 C           -0.69979154        2.07710005        1.61265173
 C           -1.64107248       -1.40766515        1.36713043
 C           -1.82822204       -0.02127681        1.23939191
 C           -0.70295533       -3.20197475        0.07690400
 C           -1.67370945       -2.21196061        0.22643969
 C            1.35333999       -2.92023509       -0.98092173
 C           -0.02567175       -3.33289285       -1.19826308
 C            1.89706291       -0.53697692       -1.15406720
 C            1.57621530       -1.74091400       -1.78029649
 C            2.01556109        1.86508811       -1.27040248
 C            1.69668005        0.65339525       -1.86158473
 C            0.73043626        3.58465985       -0.31992816
 C            1.20531016        3.03395747       -1.57803811
 C           -1.40493916        2.67216762        0.56974075
 C           -0.71421982        3.56852474       -0.34307278
 C           -2.42920842        0.48691729        0.08203947
 C           -2.30931935        1.84744259       -0.21611449
 C           -2.35257279       -1.75771047       -0.89941380
 C           -2.85259713       -0.39616852       -0.90868901
 C           -0.53676340       -2.58246157       -2.32657731
 C            0.55791582       -1.75081266       -2.81531923
 C           -1.81129738       -2.03819778       -2.22429745
 C            0.92065908        0.65737124       -3.02534726
 C            0.27353051       -0.56378924       -3.47545541
 C            0.05952603        2.87906424       -2.45572194
 C           -1.12832875        3.24088506       -1.69502035
 C           -2.22356612        2.28913493       -1.60479898
 C            0.00424764        1.76218748       -3.27812825
 C           -2.89168497        0.04395271       -2.29277597
 C           -2.17006877       -0.93370585       -3.09227456
 C           -1.10892387       -0.23896193       -3.79482624
 C           -2.38043496        1.35993873       -2.62438601
 C           -1.29554825        1.18504021       -3.57897600
