54
Modified xyz file
 C            1.22439542        0.15034839        3.80410213
 C            2.41252495       -0.04061364        3.00085420
 C            2.38126456       -1.40307591        2.50305272
 C            0.36042195       -1.00687076        3.60000924
 C            1.03170260       -1.90677324        2.69441416
 C           -0.95013490       -0.52269281        3.24176968
 C            0.42845596        1.33857058        3.58302998
 C           -0.95356089        0.91395894        3.46160680
 C            0.72021486        2.18907773        2.44075155
 C            2.64824422        0.83069995        1.86187032
 C            1.82707414        1.93719795        1.62311541
 C            2.92337484       -1.39943529        1.15448036
 C            3.04612052       -0.00950753        0.73982451
 C            2.40701801       -2.31439794        0.25407522
 C            0.35832657       -2.40788471        1.58424624
 C            1.15764643       -2.97520121        0.59725650
 C           -1.58813191       -1.01636927        2.10674271
 C           -0.91619916       -1.90722296        1.24179757
 C           -2.65930085       -0.26611659        1.62897158
 C           -1.59344637        1.75725880        2.46657645
 C           -0.55230007        2.54753178        1.82604987
 C           -2.57242331        1.18549777        1.67439582
 C           -0.58908557        2.78182212        0.45096621
 C            1.84069513        2.49592408        0.34796421
 C            0.62086790        3.09012495       -0.16922113
 C            2.67724985        0.38094665       -0.54796340
 C            2.42547079        1.73308888       -0.74332824
 C            2.28237853       -1.92529020       -1.13473331
 C            2.16471784       -0.56901664       -1.44872689
 C            0.56000485       -3.42122222       -0.63633096
 C            1.37029418       -2.88735539       -1.72263818
 C           -1.51456506       -2.28518218        0.01919836
 C           -0.81219016       -3.06210745       -0.90096311
 C           -3.28472155       -0.62263845        0.37928794
 C           -2.64747773       -1.61860656       -0.44565811
 C           -2.72999971        1.65368330        0.31334980
 C           -1.68604993        2.33657685       -0.30849783
 C           -3.41152685        0.59369507       -0.41110881
 C           -1.63470943        2.33082067       -1.70532386
 C            0.73008827        3.09431242       -1.61374139
 C            1.80370818        2.17682322       -1.97017725
 C           -0.43100122        2.74397079       -2.39667450
 C            1.40680736       -0.16896833       -2.56727703
 C            1.25661532        1.18318896       -2.86484748
 C           -0.04866972        1.66313760       -3.29065886
 C            0.46990617       -2.44513006       -2.76044931
 C           -0.88676999       -2.71592533       -2.31087199
 C            0.51421964       -1.05850429       -3.16949208
 C           -2.67593902       -1.13042307       -1.81687415
 C           -2.99465833        0.28884584       -1.76891200
 C           -2.18559072        1.19952027       -2.43880779
 C           -1.15404304        0.71971479       -3.34845052
 C           -1.71872822       -1.59215187       -2.71115117
 C           -0.85858534       -0.63765446       -3.39688019
