54
Modified xyz file
 C            1.31107154       -0.05996011        3.65733599
 C            2.53480105       -0.17614645        2.88738909
 C            2.54079159       -1.49043083        2.27371870
 C            0.46919476       -1.20306446        3.33035424
 C            1.21963831       -2.07286195        2.44742908
 C           -0.80517349       -0.69394798        2.87267676
 C            0.50658235        1.13773831        3.50315017
 C           -0.86257581        0.70689326        3.24434829
 C            1.03382742        2.21769371        2.79929772
 C            2.80417348        0.79813052        1.84209198
 C            2.10353885        1.99624498        1.83291370
 C            3.04615754       -1.34536324        0.91897455
 C            2.96877557        0.06962763        0.59251038
 C            2.60151162       -2.25538815       -0.02628572
 C            0.59912800       -2.61078094        1.32298891
 C            1.44441845       -3.06507529        0.31243090
 C           -1.27295119       -1.08781158        1.62295029
 C           -0.70408118       -2.19939138        0.99213169
 C           -2.17122063       -0.26650901        0.92866438
 C           -1.72968242        1.54236748        2.55401819
 C           -2.47556593        1.00469498        1.42538489
 C            0.12496316        3.18800980        2.21801705
 C           -1.29262910        2.88190156        2.19477695
 C            1.64455816        2.52231999        0.56155727
 C            0.55147940        3.42631866        0.84554935
 C            2.26435830        0.46947655       -0.54732422
 C            1.53953850        1.66857442       -0.53198359
 C            2.36588389       -1.79096563       -1.37954417
 C            2.09435448       -0.44014251       -1.59681888
 C            0.88475005       -3.54811876       -0.93242536
 C            1.51943827       -2.79315912       -2.00448963
 C           -1.32322776       -2.70627306       -0.14863857
 C           -0.54585672       -3.46174868       -1.11548239
 C           -2.57445387       -0.60567827       -0.36752878
 C           -2.23483764       -1.85261045       -0.89011811
 C           -3.00449454        0.39988363       -1.23330418
 C           -2.70139401        2.09628143        0.49145114
 C           -1.77606120        3.15616691        0.85498314
 C           -0.62206155        3.37449866       -0.00260735
 C           -2.81664429        1.78672805       -0.85400218
 C            0.57638631        1.92122045       -1.51465129
 C           -0.57019839        2.67377295       -1.20470704
 C           -1.79610445        2.29901017       -1.75136079
 C            1.35313660       -0.06794864       -2.71724669
 C            0.62707702        1.18987112       -2.69963302
 C            0.48219538       -2.35855840       -2.91862841
 C           -0.78305765       -2.88285528       -2.42548237
 C           -1.91844578       -1.98402404       -2.30998973
 C            0.52266717       -1.05628200       -3.40057084
 C           -2.65498759        0.31966752       -2.64142893
 C           -1.83287056        1.48288281       -2.94668313
 C           -0.57940935        1.01064716       -3.48837690
 C           -1.95850277       -0.85716089       -3.12141282
 C           -0.72790938       -0.40836558       -3.75636969
