54
Modified xyz file
 C            1.50343880       -0.03093180        3.77199248
 C            0.64001410       -1.19477200        3.77446820
 C            1.22457948       -2.17851908        2.88042431
 C            2.48849943       -0.21971288        2.71974955
 C            2.22094415       -1.48330685        2.07339355
 C            2.47867081        0.96619210        1.90358926
 C            0.69266063        1.11889205        3.40877759
 C            1.38740108        1.81808693        2.35311703
 C           -0.71744805       -0.74580346        3.51803761
 C           -0.65196399        0.65884263        3.13979164
 C           -1.56605887       -1.59105110        2.81793775
 C            0.37745914       -3.08789959        2.26269713
 C           -1.06119362       -2.88063118        2.36368430
 C            0.66715128       -3.48502468        0.89772449
 C            2.13920675       -1.53425845        0.67922725
 C            1.55149951       -2.65130181        0.09740638
 C            2.65903915        0.84686291        0.53299761
 C            2.32787176       -0.37267036       -0.09310423
 C            2.47174778        2.02597897       -0.17163563
 C            0.64560994        2.46409031        1.36944184
 C            1.36244057        2.86720310        0.24363256
 C           -1.27780195        1.08571593        1.96960890
 C           -0.71291212        2.13996490        1.22467311
 C           -2.39040129       -1.04318618        1.75501502
 C           -2.31299672        0.30839635        1.43038390
 C           -1.65052812       -3.16236152        1.06447174
 C           -0.59687381       -3.60463654        0.18584717
 C           -2.43345901       -2.00855862        0.66777509
 C            0.94977759       -2.53400813       -1.21191303
 C           -0.44366988       -2.92932849       -1.08376979
 C            2.01810019       -0.39537957       -1.47018713
 C            1.23282955       -1.43003514       -2.00008943
 C            2.50287753        1.99759618       -1.61133248
 C            2.29042850        0.72623208       -2.26077656
 C            0.66571327        3.30208854       -0.95225164
 C            1.48271410        2.91747660       -2.09162319
 C           -1.42831329        2.68546071        0.15912855
 C           -0.71550114        3.17401543       -1.01123773
 C           -2.90699770        0.69446823        0.23556087
 C           -2.61409569        2.00097366       -0.30891366
 C           -2.37621620       -1.52875829       -0.64324372
 C           -1.42456241       -2.04736992       -1.54246455
 C           -2.92017196       -0.26178253       -0.86175694
 C            0.30450218       -1.14229197       -2.99793718
 C           -1.10386230       -1.33556265       -2.69794021
 C            1.47589885        1.00004831       -3.43345544
 C            0.85251820        2.30144413       -3.24186308
 C            0.43398810        0.06262168       -3.78593701
 C           -1.35549940        2.61263501       -2.19670148
 C           -2.52475926        1.87234077       -1.75459294
 C           -2.64678558        0.46129756       -2.08894286
 C           -1.78696381       -0.09550070       -3.02038429
 C           -0.58656977        2.10601723       -3.24102692
 C           -0.84197649        0.75970116       -3.72747374
