54
Modified xyz file
 C            1.56428515       -0.17847996        4.40178729
 C            0.67109292       -1.31410507        4.52434074
 C            1.22031360       -2.39213446        3.71937956
 C            2.58013912       -0.51343748        3.41524225
 C            2.34362192       -1.86345937        2.96262804
 C            2.58012847        0.53762261        2.42265465
 C            0.79395302        0.93329262        3.86965538
 C            1.56420571        1.51280290        2.79245545
 C           -0.60794397       -0.93359151        3.94482377
 C           -0.53665102        0.46121375        3.55147702
 C            0.20520068       -2.78106768        2.76062541
 C           -0.94308556       -1.90842750        2.92739614
 C            2.07137678       -2.07789508        1.54904754
 C            0.82483855       -2.81661037        1.44672351
 C            2.70046398        0.21877860        1.07072697
 C            2.30470417       -1.05585134        0.62421096
 C            2.55613136        1.29225384        0.20094994
 C            0.88334098        2.13143955        1.74963916
 C            1.62432946        2.33809434        0.59120919
 C           -1.07330467        0.82857694        2.32035193
 C           -0.49367146        1.89382422        1.62374281
 C           -1.55751559       -1.46574708        1.76412044
 C           -1.83933733       -0.10386038        1.61108922
 C            0.01160015       -2.54959797        0.35229391
 C           -1.30997999       -2.19527170        0.60996631
 C            1.71856646       -1.18375797       -0.64342269
 C            0.60428318       -2.02197932       -0.79324855
 C            2.35938517        1.04756501       -1.21083679
 C            1.99830296       -0.22956812       -1.62312798
 C            0.96815036        2.82138437       -0.60758554
 C            1.63798023        2.19689569       -1.73731095
 C           -1.16806958        2.38169467        0.50790881
 C           -0.41352761        2.93483273       -0.60840247
 C           -2.47261917        0.29786777        0.42827890
 C           -2.25918958        1.59574164       -0.04454219
 C           -2.13187814       -1.94481938       -0.47248937
 C           -2.87683149       -0.69953303       -0.46142724
 C           -0.18289910       -1.92258201       -1.94234751
 C           -1.56614927       -2.06122474       -1.80096737
 C            1.45679093       -0.38359897       -2.89679694
 C            0.35068395       -1.30526774       -3.07191829
 C            0.96432236        2.05552864       -2.94140011
 C            1.15039814        0.81318439       -3.66437816
 C           -1.15067033        2.66362702       -1.83185358
 C           -2.33355808        1.89033196       -1.47196848
 C           -0.45449288        2.38084658       -3.00558250
 C           -3.17679693       -0.37348314       -1.84693327
 C           -2.47644464       -1.34338743       -2.67641192
 C           -2.85022936        0.94404577       -2.35023335
 C           -0.52807817       -0.76103705       -4.09957643
 C           -0.04980487        0.56607268       -4.44119919
 C           -1.05888033        1.51993763       -4.00781068
 C           -1.94505311       -0.64623943       -3.82630417
 C           -2.25192752        0.76855937       -3.66464959
