54
Modified xyz file
 C            1.21094857       -0.16203963        3.75118650
 C            2.37591595       -0.38658872        2.91664015
 C            2.20466161       -1.67404753        2.26203034
 C            0.33382465       -1.31294371        3.59777713
 C            0.84841378       -2.11433419        2.50176532
 C           -1.02412144       -0.82386590        3.51805985
 C            0.41058396        1.03327657        3.54608316
 C           -0.98168049        0.63012858        3.54332310
 C            0.83006739        2.00100378        2.64020723
 C            2.71475587        0.58797147        1.89359566
 C            2.02768926        1.79052778        1.83154998
 C            2.63609540       -1.53185235        0.88851518
 C            2.98469753       -0.13610450        0.66442815
 C            1.93667093       -2.19139970       -0.11345065
 C            0.03954097       -2.38592028        1.39784590
 C            0.64760349       -2.67773422        0.16624961
 C           -1.83133388       -1.21567287        2.38170264
 C           -1.34131621       -2.13039844        1.45755815
 C           -1.85719426        1.11840849        2.49007128
 C           -2.51009852       -0.03184515        1.88323396
 C           -0.15132312        2.67989367        1.80400437
 C           -1.44469053        2.16349579        1.67125619
 C            1.79761532        2.40400477        0.53601392
 C            0.56348040        3.16968732        0.63403139
 C            2.68210566        0.43390875       -0.57562742
 C            2.08500819        1.70232943       -0.63658343
 C            2.26144168       -1.82520507       -1.41489977
 C            2.58635936       -0.43134203       -1.66943051
 C            1.47811862       -2.31881044       -2.52666374
 C           -0.12696819       -3.23092644       -0.85402857
 C            0.26273734       -3.04804664       -2.24049148
 C           -2.11150580       -2.31192586        0.31733343
 C           -1.56057370       -3.04902669       -0.80060357
 C           -2.87326963        0.01720750        0.53503126
 C           -2.83492215       -1.16378269       -0.21221001
 C           -2.14766157        2.37133743        0.48963248
 C           -2.82427205        1.24261331       -0.13390490
 C           -0.14186682        3.47048825       -0.52197110
 C           -1.56272011        3.18125823       -0.56520407
 C            1.53969186        2.15701333       -1.83686183
 C            0.42444820        3.09190371       -1.80427016
 C            1.87778472       -0.02604644       -2.87368961
 C            1.12709050       -1.17622119       -3.35317331
 C            1.26212585        1.21322572       -2.90139037
 C           -0.83112464       -2.36351703       -2.91469697
 C           -1.96314090       -2.36592886       -2.02059077
 C           -2.54524283       -1.09698904       -1.63555385
 C           -0.32300964       -1.09166289       -3.38841328
 C           -2.50025773        1.27063001       -1.55293552
 C           -1.85453820        2.53696856       -1.83590470
 C           -0.64418684        2.53242815       -2.62019904
 C           -0.16955981        1.27043917       -3.14781944
 C           -2.06510098        0.09774799       -2.16738335
 C           -0.92779702        0.10628077       -3.00117489
