54
Modified xyz file
 C            1.53476499       -0.00991792        3.75342062
 C            0.71473145       -1.20469367        3.75032100
 C            1.28259411       -2.13215803        2.78448213
 C            2.51216613       -0.15003223        2.68827301
 C            2.22652198       -1.37610833        1.97685493
 C            2.49648469        1.07911626        1.92893772
 C            0.67558025        1.10954744        3.40741534
 C            1.34067061        1.85493688        2.36200276
 C           -0.66906804       -0.79243408        3.57910226
 C           -0.64453663        0.58919021        3.12521075
 C           -1.53326877       -1.68185022        2.96062784
 C            0.41899147       -3.01265751        2.15258066
 C           -0.98806579       -2.95434471        2.51448383
 C            0.47745109       -3.13135283        0.70414515
 C            2.05494383       -1.30379290        0.59561783
 C            1.15600706       -2.16885029       -0.04093072
 C            2.74077583        1.02654134        0.56150791
 C            2.56928281       -0.20372458       -0.10218192
 C            2.46725295        2.20397746       -0.12527459
 C            0.57196127        2.45916680        1.37010451
 C            1.27933891        2.93833784        0.27002930
 C           -1.23760412        0.92777838        1.91045228
 C           -0.75340239        2.02949098        1.19046081
 C           -2.39547921       -1.19472981        1.89564758
 C           -2.13788435        0.04148618        1.30580003
 C           -1.75813750       -3.38902003        1.36644393
 C           -0.83534007       -3.54050862        0.25440829
 C           -2.67416839       -2.31495274        1.02478209
 C           -1.40552763       -2.84161593       -0.87574541
 C           -2.56324771       -2.09484498       -0.39892018
 C            0.76086690       -1.91531755       -1.36235817
 C           -0.55459241       -2.19462098       -1.76860187
 C            2.54955345       -0.24824117       -1.49674344
 C            1.56656776       -1.09540924       -2.15064802
 C            2.56743685        2.23865218       -1.56644467
 C            2.66151065        0.97912984       -2.26670222
 C            0.57846196        3.33376278       -0.93576011
 C            1.40799514        2.95697589       -2.07259597
 C           -1.47633821        2.46837548        0.08251206
 C           -0.79467884        3.15677697       -1.00427126
 C           -2.56446637        0.27644781       -0.00738200
 C           -2.72630205       -0.80605324       -0.89363143
 C           -2.46223926        1.57647217       -0.50401640
 C           -1.17432316       -1.34015067       -2.67742687
 C           -2.36469394       -0.64296550       -2.22611562
 C            0.98011055       -0.33560305       -3.24537356
 C            1.63214636        0.96231566       -3.29202461
 C            0.83157830        2.17047699       -3.15012661
 C           -0.38646619       -0.41235403       -3.46484511
 C           -1.39003803        2.72103881       -2.25629516
 C           -2.47803315        1.81217626       -1.93789301
 C           -2.37601861        0.67397561       -2.82088182
 C           -0.55165596        2.08832766       -3.26499536
 C           -1.16017059        0.81383095       -3.60743854
