54
Modified xyz file
 C            1.10889498        0.01002157        3.94208079
 C            2.36172268       -0.34122090        3.32801361
 C            2.23891894       -1.72951536        2.90535176
 C            0.26793493       -1.17692722        3.87143386
 C            0.81859117       -1.97679247        2.80074139
 C           -1.08658270       -0.70831583        3.73992488
 C            0.33089351        1.07030836        3.34213576
 C           -1.02099038        0.74623980        3.73519307
 C            0.58564005        1.44624618        2.01328299
 C            2.76836441        0.38694601        2.14741322
 C            1.80888099        1.10329835        1.41371407
 C            3.03996164       -1.86519854        1.71727508
 C            3.62098880       -0.55513870        1.45994900
 C            2.37977412       -2.24870067        0.48919590
 C            0.20687457       -1.94925468        1.53700566
 C            0.98678971       -2.13473223        0.38129638
 C           -1.82152534       -1.07089248        2.54849536
 C           -1.13389103       -1.54035944        1.42075037
 C           -2.09561115        1.20285834        2.89454359
 C           -2.75812624        0.01313248        2.37970487
 C           -0.45629349        1.96669916        1.22787238
 C           -1.76217550        1.99417667        1.73082333
 C           -0.26956354        2.16012187       -0.14640149
 C            1.98451274        1.28247153        0.03154426
 C            0.94881068        1.81866441       -0.74355107
 C            3.74525568       -0.43463444        0.03165858
 C            3.19894230       -1.65692294       -0.54015574
 C            3.04448975        0.64664840       -0.62512525
 C            2.55157348       -1.27342997       -1.76746841
 C            2.81970508        0.14225886       -1.95998691
 C            0.41721030       -1.93101325       -0.88587023
 C            1.25516195       -1.70854064       -1.99899230
 C           -1.69510226       -1.33919253        0.14941298
 C           -0.96271118       -1.70704230       -0.98770695
 C           -3.17301009        0.33139666        1.03842047
 C           -2.85273003        1.73245865        0.82032054
 C           -2.86058045       -0.55483869        0.01829656
 C           -1.37405016        2.48515333       -0.94734544
 C           -2.71348010        2.14330712       -0.49151263
 C           -1.33609184        2.23383157       -2.37957510
 C            1.06205627        1.80224379       -2.14138703
 C            1.94735900        0.83671092       -2.77597889
 C           -0.12899825        1.89546356       -2.97123042
 C            0.70048526       -1.26824046       -3.19337328
 C            1.11611010        0.04312949       -3.66472924
 C           -0.07949278        0.80880462       -3.94187766
 C           -1.55806620       -1.63112779       -2.24586069
 C           -0.72357336       -1.38047754       -3.39898078
 C           -1.17635218       -0.13990521       -4.01384880
 C           -3.27463173       -0.15391813       -1.24500286
 C           -3.28212217        1.27608272       -1.50895280
 C           -2.54511230        1.49997128       -2.73337101
 C           -2.73964659       -0.81533934       -2.41083124
 C           -2.43539206        0.21302602       -3.39673446
