54
Modified xyz file
 C            1.33586530       -0.00928049        4.39444865
 C            0.51702672       -1.17178372        4.10644735
 C            1.30607951       -2.08591273        3.30286841
 C            2.57002677       -0.13965623        3.63627884
 C            2.52217223       -1.39285325        2.91062699
 C            2.74661280        1.08377115        2.88701504
 C            0.63249658        1.16117754        3.89237292
 C            1.57069138        1.92008834        3.10580917
 C           -0.74498484       -0.70039955        3.56724988
 C           -0.59197500        0.71223157        3.25834525
 C           -1.40662452       -1.49317679        2.64502502
 C            0.70358964       -2.63813836        2.10132839
 C           -0.66954783       -2.53785934        1.93408797
 C            2.57145818       -1.37971751        1.45563620
 C            1.56036907       -2.30388812        0.97572515
 C            2.94625003        1.01762823        1.44824449
 C            2.77480182       -0.18826678        0.75599805
 C            1.15249387        2.39711853        1.80246490
 C            2.29515727        2.20456471        0.93393399
 C           -0.93778063        1.16987426        1.97912481
 C           -0.11635750        2.08338189        1.30120649
 C           -2.22853987       -0.83497822        1.65140080
 C           -1.91877453        0.47222792        1.26776125
 C           -1.20614116       -2.58210659        0.58428707
 C           -2.44040642       -1.82573005        0.61999577
 C            0.98982315       -2.06446572       -0.27125603
 C           -0.35195278       -2.39930636       -0.50401982
 C            2.40138295       -0.13303299       -0.59247671
 C            1.63075290       -1.17370842       -1.13082075
 C            2.07351949        2.27904468       -0.42370683
 C            2.39485216        1.11327644       -1.22029176
 C           -0.34239591        2.32185670       -0.05795494
 C            0.74959380        2.66245305       -0.86011490
 C           -2.29158725        0.89209076       -0.01287910
 C           -1.50948178        1.85420499       -0.66975140
 C           -2.95544532       -1.38868545       -0.58066730
 C           -3.12463831        0.03984868       -0.74730478
 C           -0.92428763       -2.09835776       -1.74607786
 C           -2.29652973       -1.82046278       -1.79586492
 C            1.20178878       -1.10930944       -2.45357345
 C           -0.08494665       -1.69286915       -2.78601235
 C            1.68738527        1.28009904       -2.47866654
 C            0.71227703        2.35115627       -2.27351530
 C            1.31493177        0.14383236       -3.18130755
 C           -1.69396783        2.11251691       -2.03528683
 C           -0.52622375        2.27122312       -2.88708881
 C           -3.32219505        0.24425606       -2.16869511
 C           -2.84419591       -0.96317880       -2.83480764
 C           -2.68347984        1.37323057       -2.79502669
 C           -0.61259768       -0.96683886       -3.93234623
 C            0.19859833        0.22656111       -4.10792541
 C           -0.68203013        1.37566108       -4.01815187
 C           -2.00337789       -0.56056713       -3.93947790
 C           -2.04953109        0.89115463       -4.01261404
