54
Modified xyz file
 C            1.12847579        0.05756275        3.82886377
 C            2.35318904       -0.25247097        3.13068309
 C            2.26257846       -1.64618236        2.72434352
 C            0.28800040       -1.13127620        3.77159844
 C            0.85555120       -1.98545559        2.74751794
 C           -1.07858824       -0.68245242        3.61750991
 C            0.32098772        1.15715039        3.34634685
 C           -1.05508946        0.77024442        3.58344634
 C            0.63422871        1.78386442        2.13666589
 C            2.67383486        0.50032737        1.93447923
 C            1.69551910        1.30935232        1.34878834
 C            2.97372465       -1.76218138        1.47596314
 C            3.40770537       -0.42222548        1.10182801
 C            2.27118578       -2.29402760        0.32740402
 C            0.16670369       -2.15939105        1.54058284
 C            0.87937652       -2.40967160        0.35150717
 C           -1.82074001       -1.11612597        2.45357400
 C           -1.21950378       -1.93754852        1.50111999
 C           -2.05596574        1.20854488        2.62973203
 C           -2.60930469        0.01599708        1.99598908
 C           -0.34472735        2.58297277        1.55611669
 C           -1.75015416        2.29870888        1.83296284
 C           -0.23213642        2.95354703        0.16169240
 C            1.68668761        1.49795213       -0.04964405
 C            0.75970532        2.38296144       -0.62814470
 C            3.25042127       -0.32070871       -0.32866674
 C            2.88563053       -1.64427427       -0.80796433
 C            2.58197297        0.77330647       -0.86521748
 C            2.24915748       -1.72975935       -2.03414950
 C            0.20057916       -2.48340176       -0.86983770
 C            0.88485174       -2.23753416       -2.06712084
 C           -1.90999221       -2.12458933        0.31106313
 C           -1.18808290       -2.52432794       -0.87806614
 C           -2.99790816        0.05130597        0.65466816
 C           -2.89691019       -1.12758722       -0.08347739
 C           -2.48303196        2.45763968        0.59680067
 C           -1.58136191        3.04851962       -0.37353877
 C           -3.07640407        1.28026459       -0.01080327
 C           -1.85938168        2.44200481       -1.66276784
 C           -2.81629957        1.36341330       -1.44363114
 C            0.55835158        2.38715588       -2.00746341
 C           -0.79289534        2.24427424       -2.52804480
 C            2.39837998        0.74515092       -2.24496601
 C            2.28431748       -0.55399180       -2.88641043
 C            1.43187488        1.62099542       -2.86180040
 C            0.19829446       -1.58111195       -3.17397830
 C           -0.78971459        1.09366214       -3.41459981
 C            1.07696778       -0.54830390       -3.69145727
 C            0.59737907        0.81873335       -3.74786286
 C           -1.91059893       -1.99843447       -2.02495485
 C           -2.92256320       -1.07777629       -1.53359902
 C           -2.73377790        0.19754189       -2.19672246
 C           -1.16447430       -1.33029595       -3.07299041
 C           -1.66602583        0.03795205       -3.17336755
