54
Modified xyz file
 C            1.17281745       -0.04347844        3.83790139
 C            2.35647848       -0.29634210        3.03558754
 C            2.22085812       -1.62311516        2.46035496
 C            0.32204290       -1.22090820        3.75173203
 C            0.86388483       -2.07629464        2.71464391
 C           -1.04486059       -0.77129488        3.63378585
 C            0.34929253        1.11712555        3.54299718
 C           -1.03587522        0.68259309        3.54529664
 C            0.76324477        2.03211914        2.58198001
 C            2.68934995        0.61751051        1.95780030
 C            2.00199102        1.81680793        1.84030231
 C            2.68286963       -1.56449715        1.08582553
 C            2.94521756       -0.16945431        0.76092970
 C            2.03570151       -2.35127586        0.14808951
 C            0.07164886       -2.46046794        1.62952658
 C            0.72044613       -2.88855933        0.46964775
 C           -1.84329187       -1.26001626        2.52904765
 C           -1.29718234       -2.14297637        1.59361033
 C           -1.90312664        1.05908695        2.43655966
 C           -2.63285452       -0.13512131        2.05765455
 C           -0.21200612        2.57414479        1.64773528
 C           -1.41973196        1.90691214        1.44092760
 C            1.81970582        2.39213312        0.52083844
 C            0.53502502        3.07509353        0.51191456
 C            2.56847999        0.32931263       -0.48994209
 C            2.21349989        1.68167073       -0.61214853
 C            1.98634418       -1.89686535       -1.22629448
 C            2.29614200       -0.57256629       -1.52918458
 C           -0.01305890       -3.03389824       -0.77615744
 C            0.82624538       -2.51590925       -1.84665995
 C           -2.04124357       -2.39646962        0.43989584
 C           -1.37811425       -2.79575668       -0.79024374
 C           -3.18678420       -0.20585854        0.79096863
 C           -3.10393771       -1.47069354        0.08282404
 C           -1.97997253        1.85726254        0.15738540
 C           -2.89181350        0.85072280       -0.16530731
 C           -0.11671412        3.23439018       -0.69889612
 C           -1.40732947        2.58786005       -0.88507654
 C            1.83468627        2.19248818       -1.85096567
 C            0.65318407        3.03649144       -1.91514376
 C            1.98268934       -0.10146598       -2.80056973
 C            1.80604519        1.31958912       -3.00525157
 C            0.24394964       -1.89513698       -2.94462474
 C            0.94639086       -0.78063638       -3.56166541
 C           -1.97617914       -2.05194286       -1.89205688
 C           -2.99470319       -1.18345592       -1.33585986
 C           -2.84797883        0.25316383       -1.49262042
 C           -1.17048196       -1.55314844       -2.90774337
 C           -1.43771792        2.03540002       -2.23235318
 C           -0.23360169        2.47526213       -2.91708692
 C            0.53303196        1.51893535       -3.68646799
 C           -0.04374283        0.21508146       -3.93607076
 C           -1.93904583        0.74683912       -2.42478794
 C           -1.28991442       -0.15039033       -3.28258418
