54
Modified xyz file
 C            1.48998191       -0.02593614        3.75014511
 C            0.65509882       -1.18786648        3.52585071
 C            1.21140367       -1.94528754        2.41528837
 C            2.56224369       -0.06606678        2.77516088
 C            2.30190484       -1.16319851        1.85860293
 C            2.67964843        1.26304717        2.22017960
 C            0.68366269        1.14688935        3.45539127
 C            1.43736913        1.96625466        2.53106062
 C           -0.71250888       -0.72102167        3.40125345
 C           -0.62567691        0.68635318        3.04394236
 C           -1.58084307       -1.52217566        2.68130642
 C            0.31531675       -2.56514887        1.55389439
 C           -1.01073518       -2.65627001        1.98047661
 C            0.58458179       -2.55995027        0.18143380
 C            2.33698189       -0.91268409        0.48677577
 C            1.43937891       -1.58271591       -0.35447829
 C            3.17258284        1.37347390        0.93006374
 C            2.98960861        0.23858801        0.02684101
 C            2.82200738        2.56929469        0.19007257
 C            0.76733157        2.61292394        1.49344440
 C            1.56953013        3.21695346        0.52573553
 C           -1.12179554        1.10785949        1.81078629
 C           -0.54099260        2.20528633        1.16471866
 C           -2.45307868       -0.89346769        1.70862131
 C           -2.05218279        0.30939309        1.13301089
 C           -2.02954944       -3.09950390        1.05237233
 C           -2.92463802       -1.96430407        0.85057403
 C           -0.24223240       -3.30090733       -0.66413215
 C           -1.60909555       -3.56369232       -0.25154293
 C           -0.29171716       -2.97857256       -2.07636276
 C            1.25665536       -1.12552074       -1.66739230
 C            0.46595154       -1.84205386       -2.55643612
 C            2.65901122        0.76964592       -1.28617997
 C            2.75300606        2.21504531       -1.21327282
 C            1.62205455        0.17962690       -1.99898713
 C            0.99153258        3.68496647       -0.71506746
 C            1.69339259        3.00703489       -1.79905711
 C           -1.17512974        2.71095601        0.03068836
 C           -0.42800177        3.50563411       -0.92431928
 C           -2.36044357        0.57717040       -0.20691476
 C           -2.05922730        1.83659037       -0.72514379
 C           -3.00878890       -1.72991918       -0.57584871
 C           -2.47047055       -2.91778965       -1.22188110
 C           -1.68992618       -2.75814258       -2.43158982
 C           -2.68413206       -0.47155410       -1.08310397
 C           -0.40298634       -1.09289874       -3.43637224
 C           -1.76345425       -1.48767052       -3.12250290
 C           -2.36883432       -0.35873633       -2.43810751
 C            0.77535573        0.95800649       -2.80845808
 C            0.69432350        2.33335719       -2.59960009
 C           -0.59390033        2.88318919       -2.22347764
 C           -1.71612238        1.96688709       -2.13578893
 C           -0.35246332        0.35426689       -3.35710710
 C           -1.66098890        0.81436097       -2.90456644
