54
Modified xyz file
 C            1.21838918       -0.14191524        3.48104237
 C            2.43726511       -0.42960137        2.76621024
 C            2.37307471       -1.80564929        2.30076148
 C            0.37727582       -1.32850741        3.43601898
 C            1.08284810       -2.35358105        2.69255047
 C           -0.94533545       -0.92197515        2.99439730
 C            0.41819130        0.98416425        3.04462034
 C           -0.95649795        0.52996045        2.90129779
 C            0.91936382        1.89356211        2.11516329
 C            2.77885670        0.40575255        1.63421093
 C            2.11035748        1.60883939        1.41386264
 C            2.76293430       -1.82546924        0.89752846
 C            3.03473896       -0.45807984        0.49179029
 C            2.10001481       -2.67106117        0.02361253
 C            0.37578744       -3.13058413        1.78442742
 C            1.00840751       -3.48953161        0.52619797
 C           -1.61276019       -1.66576354        2.02712274
 C           -1.02149021       -2.82152967        1.50222020
 C           -2.67041970       -1.06348988        1.35317439
 C           -1.78112740        1.15332452        1.96329737
 C           -2.72638332        0.38993308        1.27624901
 C            0.00071125        2.80424535        1.59669786
 C           -1.38075427        2.37955138        1.42990946
 C            0.34996756        3.64414145        0.46911995
 C            2.36195501        2.22328558        0.18829360
 C            1.56922136        3.35477417       -0.24439654
 C            2.67163230       -0.00629278       -0.77821865
 C            2.61412584        1.37570435       -0.96705447
 C            1.71947522       -2.17838347       -1.28860646
 C            2.00029290       -0.86416250       -1.66301234
 C           -0.02236310       -3.54281696       -0.49575446
 C           -1.29107745       -3.22665619        0.12609472
 C            0.41807346       -2.74057816       -1.62092602
 C           -3.09849290       -1.59573394        0.07275750
 C           -2.23245633       -2.53036512       -0.61603623
 C           -3.08618561        0.74900450       -0.08870597
 C           -3.35513428       -0.47689508       -0.81731256
 C           -1.78563335        2.74141367        0.08007732
 C           -0.75184486        3.59411623       -0.48008590
 C           -2.40442826        1.78547440       -0.71841825
 C            1.23529889        3.15470712       -1.64537446
 C            1.89927176        1.93988980       -2.09795721
 C           -0.20834526        3.27560954       -1.78565770
 C            1.29823180       -0.34192824       -2.74956775
 C            1.23680623        1.09228798       -2.97027537
 C           -0.50103317       -1.94359807       -2.29868146
 C           -1.84019851       -1.92023543       -1.88319140
 C           -2.64840624       -0.71697623       -2.05863513
 C           -0.00298054       -0.90493800       -3.08124667
 C           -2.05095599        1.66655210       -2.06817618
 C           -0.88611392        2.37090421       -2.59217730
 C           -0.11825222        1.42233756       -3.38135688
 C           -2.11599728        0.36973288       -2.73492397
 C           -0.87790107        0.18703016       -3.46295728
