54
Modified xyz file
 C            1.48873499       -0.09195999        4.41339509
 C            0.67616267       -1.29214041        4.48740856
 C            1.34132669       -2.31435924        3.70285155
 C            2.54954042       -0.32468513        3.44409360
 C            2.45474201       -1.69203506        2.99889524
 C            2.46652270        0.72083959        2.44550480
 C            0.65134545        0.97014758        3.88778027
 C            1.39768615        1.63058898        2.83563736
 C           -0.60095182       -1.00524346        3.84983830
 C           -0.63468284        0.40654102        3.52940272
 C            0.40040246       -2.77089641        2.69810068
 C           -0.79402953       -1.95314488        2.76859054
 C            2.27238509       -1.94066877        1.57967746
 C            1.10481384       -2.79089319        1.43885189
 C            2.60692589        0.41706698        1.08801663
 C            2.44437485       -0.90978479        0.64187381
 C            2.33833874        1.46083633        0.20903318
 C            0.68023471        2.23970220        1.81189808
 C            1.37202404        2.46341145        0.62656241
 C           -1.16978118        0.79403765        2.30845741
 C           -0.69088305        1.97032366        1.73247685
 C           -1.32746163       -1.49449301        1.56408028
 C           -1.74955381       -0.16866990        1.47084790
 C            0.36763974       -2.61369130        0.28714251
 C           -0.94366940       -2.13722353        0.38860342
 C            1.96770825       -1.15117890       -0.66195110
 C            1.07833717       -2.22335743       -0.82892184
 C            2.10999058        1.18733245       -1.19309002
 C            2.00827483       -0.12631681       -1.62224236
 C            0.64466074        2.91002165       -0.54629543
 C            1.15567782        2.16831863       -1.69147065
 C           -1.42247030        2.49795547        0.67792812
 C           -0.71823522        3.12472858       -0.42906842
 C           -2.31868678        0.26709646        0.27118010
 C           -2.43383628        1.64657408        0.08723611
 C           -1.58420626       -1.78637195       -0.80281792
 C           -2.31589194       -0.58761563       -0.84548189
 C            0.42382461       -2.39381770       -2.03249034
 C           -1.02028991       -2.28801259       -1.98008713
 C            1.47791822       -0.34728668       -2.89334850
 C            0.86603044       -1.62631217       -3.16636998
 C            0.30119017        1.80834826       -2.73391701
 C            0.62311866        0.67636086       -3.48565169
 C           -1.55053253        2.97813038       -1.60799498
 C           -2.71439530        2.19100283       -1.22387615
 C           -0.98826967        2.35313889       -2.79132066
 C           -2.86563748       -0.14637941       -2.05754508
 C           -2.99758800        1.27560221       -2.30482968
 C           -2.07980256        1.59779919       -3.38547862
 C           -1.47002594       -1.81417320       -3.27201022
 C           -0.28840123       -1.41710177       -4.02377525
 C           -0.39813584        0.00591781       -4.27697008
 C           -2.40611050       -0.71540884       -3.31240227
 C           -1.78640292        0.36139898       -4.07595759
