54
Modified xyz file
 C            1.19206402        0.01182847        4.28218264
 C            0.47272320       -1.16691740        3.83550592
 C            1.43983376       -2.04927711        3.22605979
 C            2.49775707        0.00193022        3.63628971
 C            2.64306603       -1.27045597        2.96424865
 C            2.61040359        1.21151837        2.84784577
 C            0.47278729        1.17582609        3.80000091
 C            1.42800113        2.01469949        3.11456782
 C           -0.66077233       -0.73308810        3.03507748
 C           -0.69050273        0.72039972        3.05336124
 C           -0.95025341       -1.38942036        1.83831495
 C            1.08063619       -2.68548141        1.97705464
 C           -0.20407396       -2.51773652        1.46082260
 C            2.85137841       -1.29311108        1.52382870
 C            2.20510330       -2.50480632        1.07393317
 C            2.74919560        1.11252341        1.39905523
 C            2.68332433       -0.12616766        0.77265204
 C            1.01663794        2.58788022        1.85544451
 C            1.98883881        2.20701758        0.84525992
 C           -1.05374350        1.39079448        1.88388563
 C           -0.32111828        2.51962435        1.48652408
 C           -1.70646781       -0.71188529        0.87720738
 C           -1.78544433        0.68850398        0.91940745
 C           -2.17027293       -1.40828522       -0.23998810
 C           -0.43565188       -3.08546614        0.21210312
 C           -1.50205629       -2.56913622       -0.62762007
 C            1.95964068       -2.65162575       -0.27865269
 C            0.71859242       -3.30250568       -0.64571855
 C            2.17033640       -0.21353480       -0.52919164
 C            2.06730879       -1.46930982       -1.12468345
 C            1.51928268        2.13366337       -0.46058957
 C            1.54445480        0.89434702       -1.12949694
 C           -0.60047436        3.06535861        0.24247673
 C            0.47234595        3.00242245       -0.73726198
 C           -2.31813502        1.38921417       -0.16370225
 C           -1.79476031        2.64703570       -0.45649617
 C           -2.95191395       -0.74739488       -1.18445895
 C           -3.05103585        0.70036782       -1.12888423
 C           -2.79331714       -1.12201907       -2.57893247
 C           -1.06733026       -2.71232373       -2.01396336
 C            0.37370017       -2.84404465       -1.97183025
 C            1.16782890       -1.65894781       -2.24776633
 C           -1.58686230       -1.83070565       -2.94376331
 C            0.78053322        0.72122457       -2.30659137
 C            0.51606415       -0.56538081       -2.80325037
 C           -0.68408134       -0.82115274       -3.47838377
 C           -0.13195520        2.97415258       -2.04404945
 C           -1.56985965        3.03300696       -1.83885881
 C            0.12296151        1.82101727       -2.87132058
 C           -3.09410455        1.19725293       -2.49900328
 C           -2.83757492        0.08163635       -3.38744041
 C           -1.50715497        0.27451065       -3.94697511
 C           -2.17995130        2.24907984       -2.88790491
 C           -1.09593181        1.62334351       -3.63633170
