54
Modified xyz file
 C            1.27272737       -0.20656830        3.63999065
 C            2.46482307       -0.38532679        2.83384499
 C            2.39082546       -1.69839575        2.21386221
 C            0.42840109       -1.37786897        3.45434619
 C            1.10209365       -2.27820312        2.53717182
 C           -0.91026645       -0.91336096        3.13347235
 C            0.44891709        0.97196709        3.43090038
 C           -0.93197443        0.52750097        3.34372853
 C            0.89763703        1.98689013        2.59104406
 C            2.76761693        0.58348209        1.79396050
 C            2.06362305        1.77693706        1.73846382
 C            2.76273760       -1.55431685        0.81812530
 C            3.02291072       -0.14543068        0.56385706
 C            2.09441663       -2.28980313       -0.15602739
 C            0.36917691       -2.87689712        1.52268117
 C            0.96007174       -3.02875522        0.19956209
 C           -1.59400049       -1.46443096        2.04874745
 C           -1.03376641       -2.52501085        1.33853138
 C           -2.65642459       -0.76275668        1.48708712
 C           -1.86199848        1.29763746        2.65636424
 C           -2.88193619        0.61778018        1.88049315
 C           -0.06546270        2.77859264        1.84059887
 C           -1.41822183        2.45382979        1.88861589
 C            1.77850960        2.36653239        0.44395380
 C            0.54866700        3.13522952        0.57145172
 C            2.64747026        0.39161789       -0.66846142
 C            2.02750171        1.64815669       -0.72720977
 C            2.26065453       -1.89048965       -1.47870702
 C            2.54130966       -0.48809521       -1.74710453
 C            1.34164231       -2.36712323       -2.49608593
 C           -0.14495971       -3.17429791       -0.73891241
 C           -1.35003005       -2.69209638       -0.07387921
 C            0.05686927       -2.89717435       -2.08297294
 C           -2.90699851       -0.86232947        0.05737611
 C           -2.18944264       -1.77523000       -0.70993302
 C           -3.12851401        1.39445245        0.67720498
 C           -2.22641376        2.52949308        0.67908806
 C           -3.10928334        0.48513860       -0.45493940
 C           -0.24699526        3.32896224       -0.55013009
 C           -1.64321529        2.91711623       -0.52121388
 C            1.43753454        2.08147749       -1.91441491
 C            0.28996142        2.97043442       -1.85107420
 C            1.80957062       -0.10485097       -2.94270038
 C            1.10456001       -1.27914025       -3.43093001
 C            1.18829961        1.13535206       -2.98574228
 C           -0.97298582       -2.18125178       -2.81159353
 C           -2.02484228       -1.51128904       -2.06767274
 C           -0.32444137       -1.19410483       -3.66045629
 C           -2.46811636        0.86451221       -1.63177054
 C           -1.89967176        2.13857854       -1.72654526
 C           -0.78060383        2.36260952       -2.62445411
 C           -0.22378706        1.23387117       -3.34299043
 C           -2.09546414       -0.13410062       -2.53288274
 C           -0.98871213        0.08054715       -3.45571946
