54
Modified xyz file
 C            1.27661504       -0.05022820        3.53909666
 C            2.55455475       -0.26432113        2.89042922
 C            2.51239989       -1.56598682        2.24550962
 C            0.44611598       -1.21850680        3.28422110
 C            1.17004186       -2.10553372        2.40253218
 C           -0.85554387       -0.75641953        2.86774329
 C            0.50406927        1.13395434        3.19772055
 C           -0.83637156        0.69820577        2.85060837
 C            1.09301482        2.15404812        2.46248329
 C            3.00834180        0.70505446        1.91123535
 C            2.42143153        1.96475643        1.88324804
 C            3.04749939       -1.42101950        0.90157521
 C            3.21274918        0.00232843        0.65156257
 C            2.51310136       -2.21595870       -0.09927487
 C            0.53177482       -2.62519353        1.27856050
 C            1.34826888       -3.02074186        0.21803297
 C           -1.52035868       -1.41421117        1.83923920
 C           -0.83164492       -2.35191990        1.05008146
 C           -2.64181911       -0.76897537        1.32001476
 C           -1.55937200        1.35153855        1.85359853
 C           -2.67948387        0.68449382        1.37103670
 C            0.28611512        2.86921500        1.48851872
 C           -0.92258167        2.31618719        1.05338795
 C            2.45479196        2.70155655        0.63368737
 C            1.20839040        3.43819860        0.52448434
 C            2.73119977        0.56902824       -0.53153311
 C            2.62465099        1.95478291       -0.60088656
 C            2.23709968       -1.61751208       -1.39165076
 C            2.07218047       -0.23698108       -1.47043652
 C            0.76409328       -3.40902893       -1.04677295
 C            1.28479784       -2.48976490       -2.05199674
 C           -1.46759903       -2.89324833       -0.07182581
 C           -0.67565259       -3.42737373       -1.16326042
 C           -3.21684757       -1.18913512        0.05512338
 C           -2.58252260       -2.18435104       -0.67644611
 C           -3.33076928        1.15981565        0.17471042
 C           -3.71122478        0.00069813       -0.61980440
 C           -1.39693869        2.60761519       -0.24116386
 C           -2.60848098        2.07628083       -0.67773187
 C            0.83537353        3.44157461       -0.87109192
 C            1.74583590        2.55142404       -1.58197096
 C           -0.50717352        3.03788001       -1.22657476
 C            1.06988115        0.30091313       -2.29711531
 C            0.93973450        1.68214578       -2.41762255
 C           -0.39099990        2.25914770       -2.44529899
 C            0.15191686       -1.89829111       -2.72842623
 C           -1.01937767       -2.67237221       -2.35486842
 C           -2.25472951       -1.96138772       -2.08317489
 C            0.04141597       -0.51262151       -2.79300724
 C           -3.30647258        0.24902389       -1.98883392
 C           -2.68630247        1.56246645       -2.03700555
 C           -1.45819463        1.45336694       -2.80729901
 C           -2.40876077       -0.69286748       -2.63022787
 C           -1.21823373        0.03825075       -3.04314016
