54
Modified xyz file
 C            1.40202990       -0.30210155        4.37266211
 C            0.55109489       -1.44788020        4.10559294
 C            1.14304712       -2.18929587        3.00887755
 C            2.50152408       -0.33236509        3.42134331
 C            2.26009544       -1.42173827        2.49610367
 C            2.64074772        1.00175160        2.88891839
 C            0.63130899        0.89657127        4.09180979
 C            1.48402937        1.77634558        3.32680670
 C           -0.72973051       -0.95282568        3.63290383
 C           -0.63474838        0.48873807        3.51114099
 C            0.07639046       -2.51241291        2.08114909
 C           -1.08096606       -1.71136038        2.44268079
 C            0.38471435       -2.58556093        0.73133681
 C            2.30588903       -1.20037024        1.11975903
 C            1.62720585       -2.10344480        0.30350276
 C            2.73904595        1.16958475        1.45119734
 C            2.62144555        0.06790276        0.60061669
 C            0.93589176        2.41259939        2.14510807
 C            1.97637244        2.36018468        1.14111877
 C           -1.06811869        1.06250087        2.31816986
 C           -0.37268378        2.14005569        1.74571796
 C           -1.75558607       -1.05676620        1.41166118
 C           -1.94149955        0.32393146        1.51891917
 C           -0.67828814       -2.51855402       -0.16107585
 C           -1.72152970       -1.63006748        0.13405631
 C           -0.42107937       -2.88471843       -1.47461138
 C            1.87752350       -2.05250812       -1.06136442
 C            0.92831850       -2.68637988       -1.96103358
 C            2.40840807        0.31368463       -0.76330332
 C            2.22920027       -0.76351172       -1.62893646
 C            1.60588243        2.56972622       -0.17353998
 C            1.98991433        1.58244061       -1.17108829
 C           -0.76752922        2.58637651        0.48096839
 C            0.22230447        2.91805467       -0.45098241
 C           -2.60465993        0.98625766        0.49924968
 C           -2.03621005        2.23465194        0.02725036
 C           -2.44445881       -1.01887600       -0.89863130
 C           -3.01596349        0.23289031       -0.66976757
 C           -1.33127282       -2.47653126       -2.52239139
 C           -2.36721530       -1.51863581       -2.20029124
 C            0.84233942       -1.87291261       -3.15840897
 C            1.44374502       -0.58747210       -2.84518711
 C           -0.53409331       -1.91685298       -3.60734320
 C            1.05292613        1.71287060       -2.27922173
 C            0.01364123        2.64819198       -1.86478711
 C            0.71836205        0.59047403       -3.03221449
 C           -2.35947474        2.35876813       -1.38583457
 C           -3.13634522        1.18849081       -1.75817293
 C           -1.27818416        2.49200591       -2.34359772
 C           -2.44499608       -0.60814299       -3.33167571
 C           -1.16384853       -0.67775356       -4.01191895
 C           -0.48215751        0.57858137       -3.74906758
 C           -2.72438687        0.79303431       -3.08854480
 C           -1.51837204        1.54237328       -3.41562951
