54
Modified xyz file
 C            1.48659794       -0.00569711        3.74184308
 C            0.69609019       -1.20251106        3.52035748
 C            1.36846845       -2.00815084        2.51588192
 C            2.62451125       -0.05576869        2.84119350
 C            2.63606570       -1.35541573        2.20470498
 C            2.58139094        1.12247166        1.99710679
 C            0.66984671        1.13424772        3.36243500
 C            1.36890653        1.86076724        2.32524621
 C           -0.66913996       -0.78856595        3.27026471
 C           -0.66476587        0.65438684        3.07393174
 C           -1.43889543       -1.56334426        2.41791896
 C            0.61333700       -2.58854231        1.49244021
 C           -0.77998192       -2.52709898        1.54189694
 C            1.23258831       -2.92698082        0.29244391
 C            3.14103939       -1.44666984        0.91694116
 C            2.57431987       -2.43964799        0.02614616
 C            2.95601474        1.01860828        0.65776290
 C            3.34975425       -0.22572687        0.14279511
 C            2.52900761        2.02086339       -0.21156085
 C            0.63467958        2.41923716        1.28520546
 C            1.32864184        2.76826633        0.12873451
 C           -1.34547241        1.18468921        1.97998837
 C           -0.74848549        2.20249652        1.21764391
 C           -2.47104545       -0.91286844        1.63404943
 C           -2.42786504        0.46810574        1.46046745
 C           -1.55167440       -2.59876951        0.30588225
 C           -2.73256276       -1.76258037        0.48668851
 C            0.48219772       -2.85100360       -0.95222380
 C           -0.89103550       -2.62884754       -0.92363929
 C            2.59856609       -1.90201627       -1.32355740
 C            3.12017263       -0.55258087       -1.26180037
 C            1.29189387       -2.11968118       -1.91592827
 C            2.50392499        1.77173316       -1.64040728
 C            2.58276371        0.40447427       -2.10841416
 C            0.60672228        3.05197622       -1.10182121
 C            1.29279298        2.36603467       -2.18025386
 C           -1.46189438        2.77597388        0.16757927
 C           -0.77872629        3.03511285       -1.08760501
 C           -3.22251810        1.03816506        0.47236605
 C           -2.77921557        2.26189268       -0.16188405
 C           -3.36615263       -1.21322979       -0.61956841
 C           -3.77715128        0.18139264       -0.56492797
 C           -1.48207463       -2.04217969       -2.04012895
 C           -2.80790810       -1.45679792       -1.93536876
 C            0.69689312       -1.11029062       -2.67078734
 C            1.35470748        0.11156864       -2.84208343
 C            0.57735705        1.34169391       -2.92039376
 C           -0.67746937       -1.17348491       -2.88614592
 C           -1.48375492        2.28022030       -2.11237120
 C           -2.82668776        2.05706817       -1.60277675
 C           -3.48138151        0.78983938       -1.85229239
 C           -2.79616719       -0.19573353       -2.66078530
 C           -0.80929664        1.27711490       -2.81946300
 C           -1.42792961        0.05578388       -3.08372723
