54
Modified xyz file
 C            1.37359012       -0.10110091        4.19119610
 C            0.65559273       -1.34362406        3.97096014
 C            1.56684736       -2.24031586        3.29429904
 C            2.50976848       -0.09503912        3.28419620
 C            2.66818710       -1.43608697        2.77425640
 C            2.30813095        0.97899081        2.33555761
 C            0.49211647        0.98642940        3.80334292
 C            1.15347819        1.75337157        2.76575240
 C           -0.61066585       -1.01196975        3.33275289
 C           -0.80402749        0.42041734        3.49948703
 C           -0.96977028       -1.62099119        2.12224005
 C            1.05513007       -3.02762354        2.19415887
 C           -0.27364154       -2.73979986        1.67426413
 C            2.70843944       -1.63355777        1.33560265
 C            1.97872817       -2.85359075        1.08864107
 C            2.48258856        0.75749752        0.97069722
 C            2.50597958       -0.55463910        0.46572183
 C            2.08991482        1.79266004        0.13633481
 C            0.37353278        2.36472240        1.78485524
 C            0.98303203        2.63752273        0.56339454
 C           -1.58905153        1.08464819        2.57562855
 C           -1.01373188        2.19895672        1.82799614
 C           -1.82742266       -0.95251427        1.24141816
 C           -2.32521606        0.29536069        1.61247067
 C           -1.96570892       -1.38423746       -0.08992812
 C           -0.20619548       -2.99231459        0.25103945
 C            1.19919651       -2.92086611       -0.11939424
 C           -1.11807595       -2.37666515       -0.60351539
 C            2.06763947       -0.81252287       -0.85071006
 C            1.51990544       -2.07270560       -1.16403376
 C            1.94341286        1.55780380       -1.28201251
 C            1.93518848        0.25298345       -1.75954526
 C            0.17873435        2.93696907       -0.61079082
 C            0.95325642        2.50780374       -1.76627750
 C           -1.80369062        2.32980781        0.60907805
 C           -2.75314755        1.22257628        0.58928500
 C           -1.19964522        2.73135465       -0.58162056
 C           -2.77409159       -0.65045834       -0.96825598
 C           -3.15580975        0.71355840       -0.63064130
 C           -2.51552450       -0.68992901       -2.40044411
 C           -0.74778191       -2.31889740       -1.94921594
 C            0.66676794       -2.17202881       -2.24868320
 C           -1.48522417       -1.48694122       -2.88024715
 C            1.44721600        0.02421691       -3.04747245
 C            0.80503521       -1.23627747       -3.33352394
 C           -0.52668041       -0.95577470       -3.84213647
 C            0.30504574        2.25436927       -2.96522349
 C            0.66414802        1.05981701       -3.70873128
 C           -0.56311200        0.44976675       -4.20026424
 C           -1.88450088        2.52307581       -1.77855989
 C           -2.95044441        1.53583266       -1.80736640
 C           -2.71044606        0.65177561       -2.93193631
 C           -1.13890168        2.39711979       -3.02093948
 C           -1.67809489        1.26106349       -3.75315730
