54
Modified xyz file
 C            1.62845018        0.10760150        3.77116813
 C            0.79383341       -1.07107648        3.62787612
 C            1.33238979       -1.88352501        2.54768213
 C            2.61938978        0.07687561        2.71182671
 C            2.51451082       -1.20492309        2.03757620
 C            2.47451346        1.29152563        1.92372794
 C            0.78770438        1.26923012        3.54777437
 C            1.43009629        2.09536894        2.54205061
 C           -0.58689063       -0.63079291        3.53271463
 C           -0.56494003        0.80363676        3.28898081
 C           -1.45958150       -1.41303320        2.79785574
 C            0.43315729       -2.48557526        1.66451905
 C           -0.91028050       -2.52896943        2.04919751
 C            0.78893010       -2.65608831        0.31531348
 C            2.77764713       -1.24893766        0.68049304
 C            1.97462028       -2.10953918       -0.16714209
 C            2.54100390        1.20068865        0.53191100
 C            2.96949308        0.00056014       -0.03932150
 C            1.88414880        2.15345339       -0.25797770
 C            0.61617701        2.85833447        1.72201729
 C            1.01588543        3.06398113        0.34493468
 C           -1.25114900        1.33989760        2.19655256
 C           -0.80897820        2.56057373        1.69276632
 C           -2.38382009       -0.75714757        1.89420003
 C           -2.06130939        0.50746458        1.40872268
 C           -1.93197500       -2.91366345        1.09928616
 C           -2.84087097       -1.77930590        0.97475049
 C           -0.14238925       -3.11497091       -0.61586053
 C           -1.52611097       -3.30418522       -0.22999696
 C           -0.13722300       -2.55606535       -1.96201539
 C            2.00654923       -1.55072604       -1.51188638
 C            2.70431063       -0.27137380       -1.43864719
 C            0.89733850       -1.69800779       -2.34731758
 C            1.86141953        2.01278651       -1.64876108
 C            2.30632703        0.76970962       -2.25861095
 C            0.71204954        2.49392890       -2.40624943
 C           -0.18138005        3.47892461       -0.36356719
 C           -1.32148572        3.03673022        0.42631101
 C           -0.37850823        3.01883669       -1.72330774
 C           -2.33942567        0.83632921        0.06862784
 C           -2.09337474        2.12810782       -0.39189819
 C           -1.66118637        2.32380807       -1.76440656
 C           -2.94413235       -1.45619348       -0.43037003
 C           -2.34259264       -2.55387344       -1.16530644
 C           -1.51702629       -2.23055436       -2.31253554
 C           -2.68773107       -0.15716563       -0.85925085
 C           -1.86634857        1.30079928       -2.68084145
 C           -1.76800637       -1.03467988       -2.96670729
 C           -2.41208548        0.03604699       -2.21594597
 C            0.67312137       -0.76611979       -3.36292304
 C            1.42726491        0.47616565       -3.37338391
 C            0.48208413        1.57374278       -3.50386322
 C           -0.69240825       -0.44143820       -3.73234328
 C           -0.84120569        1.00282275       -3.66839902
