54
Modified xyz file
 C            1.41534267       -0.08226253        3.83269211
 C            0.62795734       -1.26293625        3.54190145
 C            1.18257662       -1.90487172        2.36222272
 C            2.52007756       -0.05248249        2.89531840
 C            2.33750790       -1.13188652        1.94033219
 C            2.59606907        1.29535379        2.37702096
 C            0.57895734        1.07376354        3.54995228
 C            1.28058692        1.88975625        2.58751015
 C           -0.75616306       -0.84510663        3.48770095
 C           -0.73679897        0.58584546        3.20456615
 C           -1.62469961       -1.63266121        2.75250948
 C            0.29531344       -2.38187295        1.40284279
 C           -1.04721121       -2.53479351        1.76306855
 C            0.63665818       -2.29938444        0.04999034
 C            2.51347685       -0.85079218        0.58840442
 C            1.71754076       -1.50318936       -0.35859793
 C            3.17883997        1.46486714        1.13211436
 C            3.20125980        0.31663023        0.23154390
 C            2.73781687        2.59993119        0.34667376
 C            0.59452902        2.39529974        1.48411891
 C            1.36994313        3.04954731        0.53024155
 C           -1.36725024        1.05678101        2.04982859
 C           -0.64782437        1.83210679        1.12016397
 C           -2.73162387       -0.96668300        2.09947506
 C           -2.52831972        0.39921297        1.64825681
 C           -2.05164101       -2.75103872        0.73514742
 C           -3.10249109       -1.76831072        0.94925569
 C           -0.23478608       -2.83563899       -0.90084616
 C           -1.63958700       -3.00937293       -0.56473047
 C           -0.16077932       -2.39962044       -2.28636401
 C            1.89083272       -1.20543279       -1.70971542
 C            0.84066298       -1.51553748       -2.66039813
 C            3.12036527        0.82420280       -1.13066121
 C            2.90306562        2.25901557       -1.05328440
 C            2.44613717        0.07965113       -2.08918501
 C            0.82717052        3.32132200       -0.77884661
 C            1.78572490        2.84300818       -1.76881442
 C           -1.16292735        2.01520018       -0.17956215
 C           -0.46163220        2.76848120       -1.11903655
 C           -2.95746903        0.46760409        0.26554501
 C           -3.43362745       -0.85579376       -0.12825829
 C           -2.22659363        1.23046983       -0.63438836
 C           -2.42439431       -2.46893196       -1.66478890
 C           -1.51683501       -2.18739003       -2.76325412
 C           -3.23873588       -1.28365467       -1.43548426
 C           -2.36723603        0.98450555       -2.00102032
 C           -1.87361216       -0.89340710       -3.31215793
 C           -2.87699439       -0.30153729       -2.43944794
 C            0.50438247       -0.27977381       -3.36190826
 C            1.48422787        0.72468344       -2.97747271
 C            1.05501175        2.02412764       -2.71825940
 C           -0.35677034        2.27002910       -2.47799748
 C           -0.82793855        0.09604472       -3.50989156
 C           -1.28809281        1.33692265       -2.90402598
