54
Modified xyz file
 C            1.06983006       -0.02252665        4.46595872
 C            0.41311720       -1.20920947        3.93784777
 C            1.42225607       -2.03590560        3.32352813
 C            2.43029103       -0.00761720        3.95698891
 C            2.68218977       -1.30165907        3.35440037
 C            2.59271925        1.19255272        3.15214149
 C            0.38382669        1.13981604        3.92819850
 C            1.34711245        1.94128342        3.21200430
 C           -0.70459720       -0.77596548        3.12478695
 C           -0.77239326        0.66903115        3.19723556
 C           -0.94994601       -1.36770637        1.88253631
 C            1.20935441       -2.48743040        1.96079801
 C            0.03324058       -2.16382274        1.27741163
 C            3.25292485       -1.35824468        2.02135788
 C            2.46249764       -2.30951307        1.26292009
 C            2.97238333        1.08089480        1.74981271
 C            3.35098727       -0.14509729        1.21951722
 C            1.01246969        2.35372120        1.86146867
 C            2.08619520        1.93976376        0.98294887
 C           -1.16960221        1.32474619        2.04113766
 C           -0.28951574        2.20594646        1.38939709
 C           -1.86915577       -0.72420261        1.04855282
 C           -2.08347563        0.64825715        1.24695971
 C           -2.14986222       -1.28526243       -0.20217753
 C            0.03850686       -2.25897459       -0.11860919
 C           -1.16334690       -2.07592124       -0.80902365
 C            2.39921537       -1.82998308       -0.09800296
 C            2.93690170       -0.48610575       -0.12983054
 C            1.23475274       -2.03132448       -0.81582601
 C            1.74555902        1.61022048       -0.32678849
 C            2.25874130        0.44452619       -0.91812899
 C           -0.49575025        2.42835214        0.02255365
 C            0.57240636        2.16688916       -0.85070370
 C           -2.67152146        1.38623653        0.23635259
 C           -1.80701650        2.32734329       -0.44414010
 C           -3.17180432       -0.71041165       -0.96385943
 C           -3.45513864        0.69196885       -0.75862229
 C           -3.25372862       -0.94841911       -2.39314719
 C           -1.11304693       -2.18582919       -2.20148963
 C           -2.23141125       -1.75359323       -3.01421153
 C            1.14510658       -1.36465323       -2.02871232
 C            1.61783910       -0.04136540       -2.06416086
 C            0.10468513       -1.75704034       -2.85808974
 C            0.34026318        2.01408786       -2.21555200
 C            0.98185635        0.89599358       -2.87454851
 C           -2.07579791        2.22303606       -1.86730477
 C           -3.24632252        1.36899503       -2.02468436
 C           -3.26625457        0.34993605       -3.05768237
 C           -1.00735911        2.12105106       -2.74801293
 C           -1.70131605       -1.00642649       -4.14520679
 C           -0.25830437       -0.93525595       -3.99199462
 C            0.12414672        0.45611159       -3.95938989
 C           -2.22187401        0.34722481       -4.06284897
 C           -1.09283446        1.25148126       -3.91406626
