54
Modified xyz file
 C            1.07741197       -0.00715819        3.86535568
 C            2.31362218       -0.28168167        3.16968247
 C            2.24176272       -1.65830094        2.70718839
 C            0.23770145       -1.19118353        3.74185579
 C            0.83883515       -2.02305106        2.71952056
 C           -1.12273932       -0.73981194        3.55774115
 C            0.27638874        1.11890141        3.43402018
 C           -1.10813129        0.71412103        3.58732045
 C            0.63182093        1.84134050        2.29406329
 C            2.65135795        0.52707575        2.01483114
 C            1.70907931        1.41549425        1.49470975
 C            2.95480595       -1.71833178        1.45088320
 C            3.34361558       -0.35798295        1.10471930
 C            2.27238754       -2.26460541        0.29515862
 C            0.17955764       -2.22095431        1.50118968
 C            0.92693670       -2.61433572        0.38079544
 C           -1.82367430       -1.12489168        2.35250459
 C           -1.16747484       -1.84189425        1.34993642
 C           -2.07615986        1.18460704        2.60905718
 C           -2.65044695        0.00584507        1.97484341
 C           -0.33719107        2.68119928        1.75238890
 C           -1.73557963        2.27974327        1.82335347
 C           -0.11514528        3.28620118        0.45814576
 C            1.76132384        1.74976646        0.12907604
 C            0.96680955        2.78350812       -0.36007298
 C            3.11708047       -0.19487480       -0.31604508
 C            2.70780330       -1.48552960       -0.84776419
 C            2.46222837        0.93907819       -0.77780416
 C            1.92891287       -1.50974191       -2.00249901
 C            0.27329123       -2.89020418       -0.81340767
 C            0.87641633       -2.42972176       -2.05673266
 C           -1.77270804       -1.92046951        0.09416777
 C           -1.15115027       -2.64779537       -0.91163697
 C           -3.09647743        0.07985817        0.66297162
 C           -2.78013838       -1.01284408       -0.24190248
 C           -2.29210675        2.40277995        0.48643169
 C           -1.34628445        3.16005306       -0.30984087
 C           -2.94717614        1.32049949       -0.08799794
 C            0.46461238        2.71043934       -1.71917956
 C           -0.98774156        2.68075245       -1.63240473
 C            2.09846511        0.93729537       -2.12273647
 C            1.88385912       -0.34562374       -2.77532886
 C            1.09573049        1.86673624       -2.61795035
 C            0.85885180       -0.16046095       -3.78869478
 C            0.28180792        1.15934099       -3.59256355
 C           -0.19459649       -2.28375137       -3.02943950
 C           -1.45373908       -2.35040486       -2.30452354
 C           -0.22969016       -1.11094392       -3.87784331
 C           -2.84812748       -0.47597123       -1.59069172
 C           -2.68873202        0.96757581       -1.48009565
 C           -1.68441061        1.61602653       -2.20512321
 C           -1.13535986        0.98889269       -3.32219659
 C           -2.21863873       -1.15697662       -2.62198960
 C           -1.46885658       -0.39763429       -3.60544648
