54
Modified xyz file
 C            1.15361143       -0.05060969        3.72015678
 C            2.33279697       -0.31109258        2.92859989
 C            2.23661868       -1.67669850        2.43811430
 C            0.31278020       -1.23909421        3.66842420
 C            0.86977679       -2.11718558        2.65915722
 C           -1.05705387       -0.80225530        3.52625101
 C            0.32048323        1.08106508        3.37170839
 C           -1.05793160        0.65094139        3.51887929
 C            0.64349553        1.89471383        2.28518642
 C            2.60226820        0.53528654        1.78427920
 C            1.70720927        1.54830666        1.42890197
 C            2.76274416       -1.69473256        1.08423053
 C            3.13940226       -0.32840063        0.74784010
 C            2.11389703       -2.47510783        0.13573574
 C            0.10214541       -2.50504825        1.55761646
 C            0.77644751       -2.97144960        0.42725210
 C           -1.80541467       -1.23920921        2.36768351
 C           -1.26108976       -2.16540159        1.47752539
 C           -2.02645406        1.09561639        2.52893190
 C           -2.50363902       -0.08421576        1.82465715
 C           -0.36563348        2.73317649        1.81821569
 C           -1.73252065        2.23260355        1.79573732
 C           -0.16457090        3.48553558        0.60040640
 C            1.77953791        2.07933514        0.13218980
 C            0.95259755        3.13342381       -0.24479234
 C            3.07099352        0.09767562       -0.57086294
 C            2.48543901        1.39524159       -0.85890410
 C            2.13967911       -2.07605434       -1.26170095
 C            2.63038926       -0.82218233       -1.61041886
 C            0.07776729       -3.12973872       -0.83413523
 C            0.92601359       -2.57837687       -1.88628985
 C           -1.95511856       -2.35564973        0.28252577
 C           -1.29497708       -2.94191760       -0.86891298
 C           -2.73475468       -0.04560055        0.44917493
 C           -2.79918117       -1.27298950       -0.20056599
 C           -2.17148731        2.30205505        0.41678520
 C           -1.37561096        3.34835965       -0.19603022
 C           -2.42107577        1.11569522       -0.27880912
 C            0.47965574        3.20301684       -1.61732100
 C           -0.97510706        3.19713252       -1.57492569
 C            1.96089240        1.34978555       -2.21587097
 C            1.96249123       -0.04141861       -2.64284010
 C            0.89878898        2.17670982       -2.55946970
 C            0.36243716       -1.88961043       -2.95662698
 C            0.85669318       -0.56591382       -3.30662226
 C           -1.91919460       -2.39336073       -2.06102423
 C           -2.80675620       -1.31797040       -1.64324568
 C           -1.07918370       -1.88582687       -3.12915326
 C           -2.20621200        1.05954652       -1.67042977
 C           -1.41766141        2.02545804       -2.29882778
 C           -0.30675013        1.59552413       -3.13079237
 C           -0.29286397        0.28378558       -3.58902466
 C           -2.43654298       -0.12417032       -2.36806184
 C           -1.49026703       -0.51870846       -3.40050781
