54
Modified xyz file
 C            1.35758573       -0.00193862        3.78940566
 C            2.53558408       -0.19593894        2.97114160
 C            2.45838748       -1.52341045        2.37865294
 C            0.49346522       -1.15861809        3.61127199
 C            1.18129790       -2.10768194        2.75042632
 C           -0.82284099       -0.67709748        3.21751757
 C            0.55516369        1.18406008        3.57743832
 C           -0.82184472        0.75865759        3.37982918
 C            0.89077443        2.08972016        2.49008431
 C            2.82180529        0.74236594        1.89795826
 C            1.99880677        1.85329106        1.67734979
 C            2.79599920       -1.39872530        0.96724490
 C            3.28252331       -0.04685638        0.76516394
 C            1.96427551       -1.97971123        0.01063948
 C            0.44687588       -2.77303652        1.77914569
 C            0.98436090       -2.87944614        0.43281343
 C           -1.43381101       -1.22928775        2.09495756
 C           -0.96156107       -2.45397792        1.62686474
 C           -2.23332107       -0.43129759        1.26108256
 C           -1.38351978        1.56577316        2.31970604
 C           -0.36081291        2.50165686        1.87702600
 C           -2.18926544        0.96900606        1.35775117
 C           -0.37298753        2.91931087        0.54729030
 C            2.05976533        2.49900069        0.44590900
 C            0.84113814        3.04815669       -0.13593326
 C            3.22150568        0.50423105       -0.50301912
 C            2.83003698        1.89527416       -0.62735044
 C            1.91691909       -1.44575766       -1.28478745
 C            2.55607131       -0.23679365       -1.56310957
 C            0.97393115       -1.91281272       -2.20147496
 C           -0.13498010       -3.19187617       -0.43752990
 C           -1.35957352       -2.92441484        0.31373623
 C           -0.05482442       -2.84718523       -1.77814183
 C           -2.89921376       -1.02948229        0.18788159
 C           -2.43805020       -2.31553886       -0.31176749
 C           -3.30420765       -0.22889560       -0.95693256
 C           -2.50475022        1.74619106        0.24736056
 C           -1.55903824        2.76995948       -0.17185610
 C           -3.07341800        1.13765125       -0.94127222
 C           -1.52562846        2.77519694       -1.62187557
 C           -2.45221667        1.76228274       -2.09845428
 C            0.90643235        2.84346798       -1.58113399
 C            2.07937706        2.04293145       -1.86121387
 C            1.89809934        0.72376066       -2.43721649
 C           -0.25576433        2.57300104       -2.28614818
 C            0.36391298       -0.96764108       -3.12530411
 C           -1.75161638        0.92933801       -3.06159175
 C            0.67117460        0.38482149       -3.00234980
 C           -0.35154718        1.34061621       -3.06328701
 C           -1.27206218       -2.53793982       -2.50912277
 C           -2.48927668       -2.28277205       -1.76256542
 C           -2.99584122       -0.98204031       -2.16345919
 C           -1.00945072       -1.38046132       -3.34902299
 C           -2.07384494       -0.41908678       -3.13972885
