54
Modified xyz file
 C            1.45981775       -0.17060513        4.19359695
 C            0.66186550       -1.38461744        4.17027445
 C            1.19833509       -2.24230464        3.13094340
 C            2.44377643       -0.26297995        3.12776498
 C            2.38329604       -1.60497069        2.58130638
 C            2.24698429        0.86304692        2.22624085
 C            0.57996482        0.93878362        3.87932317
 C            1.14703317        1.65519353        2.74733109
 C           -0.69099169       -1.02183768        3.78186659
 C           -0.77468141        0.42582342        3.76001370
 C            0.11356656       -2.57925915        2.22211855
 C           -1.03013753       -1.75504653        2.57074536
 C            0.41003535       -2.75064055        0.87853515
 C            2.62389527       -1.76481411        1.22621383
 C            1.73782504       -2.63004213        0.47243599
 C            2.33459132        0.65011040        0.84919982
 C            2.80456870       -0.58109611        0.39679978
 C            1.59152422        1.46112470       -0.01828779
 C            0.27970374        2.24503203        1.84052530
 C            0.70476993        2.40534312        0.52455682
 C           -1.59898308        1.01352134        2.81405253
 C           -1.09041555        2.15547192        2.07973561
 C           -1.72496027       -1.09703899        1.55412922
 C           -2.24303064        0.16946417        1.81679350
 C           -0.58656425       -2.49203724       -0.05852319
 C           -1.53908816       -1.49970710        0.22530842
 C           -0.32211468       -2.83906132       -1.37942101
 C            2.00975374       -2.35271144       -0.92359161
 C            2.53376728       -0.99043901       -0.97082425
 C            1.04907122       -2.71548544       -1.85380758
 C            1.57418840        1.17774496       -1.39624768
 C            1.96882900       -0.08118842       -1.86079572
 C            0.95094210        2.05812027       -2.27959085
 C           -0.10872193        3.15486867       -0.31898475
 C            0.14478374        3.13519516       -1.74315045
 C           -1.99881498        2.34469542        0.96674741
 C           -2.60018418        1.03913143        0.70891003
 C           -1.54894591        3.08192761       -0.11673794
 C           -2.13556147       -0.76628492       -0.81667435
 C           -2.59031694        0.53678579       -0.58934348
 C           -1.20172207       -2.36040107       -2.42348499
 C           -2.06868240       -1.23878835       -2.12665770
 C            1.00223890       -1.96351487       -3.08920278
 C            1.43235138       -0.57655260       -3.05166443
 C           -0.37004287       -1.99508786       -3.55783906
 C            0.24781860        1.52688595       -3.43808450
 C           -1.93714171       -0.28854481       -3.22140406
 C            0.44662325        0.19966117       -3.78482544
 C           -0.72860450       -0.64490388       -3.94450122
 C           -1.14455777        3.10537259       -2.41294044
 C           -2.14248569        2.79937737       -1.40581648
 C           -2.62395035        1.45005486       -1.64583960
 C           -1.12242463        2.00178849       -3.35245903
 C           -2.15879622        1.05543655       -2.96476851
