54
Modified xyz file
 C            1.04247718        0.02571097        3.74740567
 C            2.22768044       -0.23746350        2.96182727
 C            2.18761773       -1.63817904        2.58948412
 C            0.20891561       -1.17017179        3.70843258
 C            0.82072189       -2.08807186        2.77053180
 C           -1.15410774       -0.75161824        3.47793042
 C            0.20369310        1.14449349        3.37497397
 C           -1.17209219        0.70005986        3.48851024
 C            0.54075128        1.94160725        2.28287122
 C            2.43611789        0.52257146        1.74415183
 C            1.52620118        1.50650542        1.37855616
 C            2.76445663       -1.75562777        1.26770267
 C            2.90172990       -0.40405000        0.72820511
 C            2.25210698       -2.73829310        0.43711348
 C            0.11625812       -2.53576014        1.64833946
 C            0.85797499       -3.13102523        0.62223322
 C           -1.81372531       -1.17996246        2.26337328
 C           -1.19252510       -2.08042586        1.39695839
 C           -2.11405224        1.14473329        2.47462674
 C           -2.50352317       -0.02580023        1.70147305
 C           -0.44987897        2.80428033        1.82371339
 C           -1.82355546        2.31695174        1.79542006
 C           -0.22590024        3.54127746        0.59699608
 C            1.45557416        1.87837939        0.03402874
 C            0.80220547        3.06003332       -0.29819244
 C            2.58514977       -0.17252078       -0.61439039
 C            1.83369902        0.96542437       -0.96627099
 C            2.47568245       -2.59042239       -0.98362330
 C            2.67875773       -1.24985206       -1.49873752
 C            0.27273281       -3.32591421       -0.69329949
 C            1.32892518       -3.15221837       -1.67452931
 C           -1.75095576       -2.21965045        0.12784911
 C           -0.99709332       -2.83096957       -0.95034545
 C           -2.64086712        0.06272160        0.31442520
 C           -2.51636178       -1.11250755       -0.42700236
 C           -2.27839706        2.45541218        0.42787886
 C           -1.47556476        3.52296752       -0.14364375
 C           -2.54331673        1.30752749       -0.32427406
 C            0.29972341        3.23774955       -1.64118015
 C           -1.13782993        3.46708850       -1.54918989
 C            1.35294536        1.11442913       -2.28247795
 C            0.51524053        2.17958462       -2.60092248
 C            2.00195694       -1.19324468       -2.77387173
 C            1.08576008       -2.32473165       -2.84023299
 C            1.25049135       -0.00612509       -3.09844297
 C           -1.27018373       -2.07956511       -2.17169965
 C           -2.26014557       -1.05904259       -1.85637538
 C           -0.24549621       -1.79061154       -3.06805968
 C           -0.07159830       -0.42692902       -3.53334381
 C           -2.49611883        1.37372962       -1.72017388
 C           -1.79209724        2.46825864       -2.36907031
 C           -0.76998960        1.87608786       -3.20864776
 C           -2.21334121        0.17445159       -2.49168134
 C           -1.11682961        0.47871762       -3.40533309
