54
Modified xyz file
 C            1.32082305       -0.25203409        3.53510255
 C            2.56550066       -0.47436836        2.82514535
 C            2.47885059       -1.76972733        2.16766552
 C            0.50469697       -1.44741352        3.39217151
 C            1.20407312       -2.37216222        2.52008736
 C           -0.84091499       -1.03047231        3.03770795
 C            0.50060036        0.89486116        3.18320875
 C           -0.85566619        0.42413440        2.96795421
 C            1.01309523        1.88001568        2.35293073
 C            2.99447759        0.49553375        1.83185982
 C            2.30579166        1.69831840        1.70171666
 C            2.79805784       -1.57242872        0.76300372
 C            3.37184260       -0.24464802        0.63782733
 C            1.90819009       -2.03550547       -0.20665787
 C            0.48216098       -3.02719605        1.53186467
 C            0.97322666       -2.99874923        0.16209660
 C           -1.56281766       -1.75596824        2.09095744
 C           -0.96180805       -2.85206526        1.46452594
 C           -2.66942545       -1.14032199        1.50309386
 C           -1.67736161        1.03745565        2.02353931
 C           -2.78178071        0.30626331        1.58741894
 C            0.12801991        2.53992164        1.41195517
 C           -1.18849054        2.11199149        1.25828659
 C            2.24626028        2.34880903        0.40204670
 C            0.90212331        2.88577978        0.22858826
 C            3.32532555        0.38228887       -0.59741120
 C            2.90015081        1.77221257       -0.67893722
 C            1.76904182       -1.32998193       -1.41279938
 C            2.68716678       -0.31491566       -1.69730662
 C            0.63394693       -1.51006891       -2.22766991
 C           -0.15481159       -3.26061924       -0.70192525
 C           -1.35850105       -3.21812115        0.11520924
 C           -0.36113659       -2.40084986       -1.84434211
 C           -3.11696169       -1.53453036        0.17274398
 C           -2.33969839       -2.40411692       -0.57310550
 C           -1.74108730       -1.93737089       -1.81783401
 C           -3.56333493        0.75472245        0.45475781
 C           -3.65802583       -0.35743453       -0.47880920
 C           -1.86955456        2.54426129        0.12090865
 C           -3.10962262        1.91156537       -0.28004310
 C            0.28506052        2.85973622       -1.02423939
 C           -1.11063294        2.83093288       -1.08739987
 C            2.36507161        1.97880838       -2.01141390
 C            2.38062643        0.69220761       -2.69311605
 C            1.03050919        2.53330400       -2.15916468
 C            0.26566018       -0.53112737       -3.14726005
 C            1.15034232        0.57590481       -3.43977211
 C            0.39333464        1.80025963       -3.23805067
 C           -2.04023533       -0.66340688       -2.31128244
 C           -3.07869467        0.07538970       -1.73834390
 C           -2.97105241        1.52219987       -1.67362977
 C           -1.77456310        2.15172159       -2.19454391
 C           -1.09318219       -0.01457161       -3.10930235
 C           -1.00466730        1.44157658       -3.10001415
