54
Modified xyz file
 C            1.54088828       -0.01350455        3.74586647
 C            0.72412221       -1.21015432        3.75074564
 C            1.35408478       -2.17821361        2.87022393
 C            2.54291124       -0.17006867        2.70349241
 C            2.34057254       -1.45522801        2.07564550
 C            2.48569523        1.00548278        1.86976093
 C            0.68697140        1.09933413        3.36707848
 C            1.36483713        1.81825523        2.32029977
 C           -0.64723071       -0.81536730        3.47940373
 C           -0.63179703        0.58495214        3.07839411
 C           -1.45881852       -1.70135817        2.78731852
 C            0.54699956       -3.12067567        2.24612930
 C           -0.89851459       -2.97032774        2.33619422
 C            0.86220143       -3.51564024        0.88482309
 C            2.29121349       -1.52941353        0.68346734
 C            1.74663757       -2.67303670        0.09865555
 C            2.67223227        0.88058575        0.49507790
 C            2.51324294       -0.38391963       -0.10311716
 C            2.39092407        2.02745951       -0.24844276
 C            0.61335581        2.44121590        1.33649299
 C            1.35623241        2.90785228        0.26474174
 C           -1.25879943        0.96771810        1.89066590
 C           -0.69993725        1.99054491        1.09311851
 C           -2.30968810       -1.19446951        1.72611302
 C           -2.28179601        0.15792474        1.38453664
 C           -1.46520331       -3.27572266        1.03224736
 C           -0.38720997       -3.64444277        0.14757491
 C           -2.31311552       -2.16908432        0.64856937
 C            1.17383779       -2.59633169       -1.23139331
 C           -0.23634498       -2.91552230       -1.09908418
 C            2.35965054       -0.48118759       -1.49019946
 C            1.53385535       -1.54040009       -2.04579851
 C            2.22154698        1.95447929       -1.68658112
 C            2.11505521        0.71052619       -2.28758443
 C            0.67439165        3.50668168       -0.85225348
 C            1.31408713        3.02471929       -2.06722622
 C           -1.37039136        2.40408377       -0.07323419
 C           -0.74312903        3.26649436       -0.98027498
 C           -2.90040234        0.51190624        0.19211608
 C           -2.54582036        1.75810299       -0.45064345
 C           -2.29023923       -1.68420373       -0.65489596
 C           -1.18310635       -1.95969841       -1.48217880
 C           -2.98984440       -0.50057569       -0.85085254
 C            0.50634471       -0.90112148       -2.84783307
 C            1.00620547        0.41890002       -3.19253344
 C           -0.83784673       -1.06767324       -2.50862597
 C            0.26285361        2.75899121       -3.03074399
 C           -0.99629744        3.13293031       -2.40633665
 C            0.10455945        1.41432010       -3.55513142
 C           -2.86675050        1.59509189       -1.86136904
 C           -2.90239650        0.16789030       -2.12739067
 C           -1.77284474       -0.14424673       -2.97081991
 C           -2.00143102        2.19409677       -2.85486163
 C           -1.31655482        1.11104849       -3.54934707
