54
Modified xyz file
 C            1.40761412       -0.27261695        4.46595248
 C            0.54746099       -1.42621472        4.28438273
 C            1.15069575       -2.26583520        3.26667790
 C            2.51246556       -0.39052603        3.52703622
 C            2.24202609       -1.52111777        2.66233536
 C            2.68864233        0.90506823        2.92346278
 C            0.65069110        0.90514702        4.07893215
 C            1.54164054        1.72857282        3.29911973
 C           -0.71460106       -0.95687962        3.74044519
 C           -0.58623487        0.46006647        3.46341544
 C            0.08147275       -2.71323150        2.39843095
 C           -1.05425453       -1.83183447        2.63692162
 C            0.40670217       -2.98456103        1.07741138
 C            2.25157508       -1.37208124        1.26992442
 C            1.59280352       -2.34394098        0.52065147
 C            2.80128967        0.99056681        1.48053039
 C            2.54760074       -0.12955533        0.67862284
 C            1.04154830        2.31276596        2.07153505
 C            2.14549793        2.23348518        1.14050185
 C           -0.93042537        0.91599751        2.18833920
 C           -0.23236580        1.97877382        1.60115967
 C           -1.68784344       -1.28632014        1.52649596
 C           -1.73471993        0.10885356        1.38095038
 C           -0.63802320       -2.85355024        0.07724565
 C           -1.74631065       -2.07125307        0.37858855
 C            1.34946779       -2.12534446       -0.89086717
 C            0.02623770       -2.65087920       -1.19715713
 C            2.26134622        0.09490164       -0.68102657
 C            1.75066327       -0.93680649       -1.48414542
 C            1.86059505        2.45937200       -0.18640331
 C            2.19959340        1.41743191       -1.13352637
 C           -0.53360661        2.32737769        0.28086315
 C            0.50018853        2.82166858       -0.51853673
 C           -2.25841913        0.63737406        0.20057296
 C           -1.66560070        1.78855337       -0.34110490
 C           -2.52418837       -1.61618901       -0.67248416
 C           -2.96629913       -0.24015674       -0.62114898
 C           -0.69462983       -2.07869560       -2.24101808
 C           -2.05513880       -1.83215253       -2.03030542
 C            1.23886605       -0.65519820       -2.75352824
 C            0.01770172       -1.32592867       -3.17606798
 C            1.45922011        1.73725529       -2.34111317
 C            0.41061425        2.68296710       -1.95727976
 C            1.16932520        0.71516467       -3.22905020
 C           -1.94822689        2.18086860       -1.65613551
 C           -0.84880755        2.57337737       -2.52286180
 C           -3.32224678        0.13759799       -1.97407182
 C           -2.78121218       -0.88472948       -2.86236634
 C           -2.88732116        1.42264203       -2.46120080
 C           -0.67225455       -0.45230329       -4.11153761
 C            0.00209591        0.83558530       -4.08922062
 C           -0.98738683        1.84742780       -3.77095016
 C           -2.09209661       -0.21539107       -3.94462677
 C           -2.29342787        1.21443027       -3.77277045
