54
Modified xyz file
 C            1.13083867       -0.12017456        3.99600991
 C            2.30295527       -0.33125865        3.16413277
 C            2.16863319       -1.64274491        2.55738759
 C            0.26617577       -1.28257152        3.84054481
 C            0.79108051       -2.05989051        2.73891632
 C           -1.09644293       -0.81297332        3.76407783
 C            0.30958322        1.05762316        3.78292084
 C           -1.07121828        0.63368632        3.92630340
 C            0.65438234        1.97230139        2.78903019
 C            2.59817008        0.60882163        2.09783063
 C            1.84945752        1.77038346        1.97676343
 C            2.67859310       -1.56225767        1.20299056
 C            2.91649965       -0.15719891        0.90182638
 C            2.05588911       -2.33591309        0.23893332
 C            0.01457626       -2.29467067        1.60095689
 C            0.67813938       -2.75808575        0.47050191
 C           -1.86217477       -1.09552897        2.56521037
 C           -1.24000968       -1.67829282        1.45580273
 C           -2.07854613        1.18229325        3.03891590
 C           -2.70096247        0.06049624        2.35462977
 C           -0.37166369        2.56833406        1.93877577
 C           -1.68884780        2.14764166        2.02381657
 C            1.57702193        2.29509688        0.65336256
 C            0.21134446        2.79458077        0.62922140
 C            2.56367973        0.33623666       -0.35874958
 C            2.05922598        1.64231020       -0.47611137
 C            2.13181845       -1.90450450       -1.13978060
 C            2.42256105       -0.57162918       -1.42030600
 C            0.00224000       -2.76204081       -0.81124637
 C            1.02425402       -2.54214046       -1.82444309
 C           -1.78373455       -1.46738058        0.17122244
 C           -1.23041044       -2.13217888       -0.93839806
 C           -2.94440980        0.46571787        0.99457419
 C           -2.39477279        1.79880669        0.80536786
 C           -2.73684866       -0.44789506       -0.02364887
 C           -0.54353308        2.61294774       -0.53176605
 C           -1.85092890        2.10262623       -0.44723988
 C            1.54556389        2.06797671       -1.69525314
 C            0.16399634        2.52804553       -1.73399465
 C            2.17711683       -0.10358405       -2.70813748
 C            1.79192034        1.27897857       -2.88153698
 C            0.64824162       -2.05956424       -3.06895908
 C            1.35318387       -0.90452364       -3.60408470
 C           -1.70214747       -1.86947340       -2.22634784
 C           -0.76646235       -1.88222048       -3.34219646
 C           -2.90642192        0.07103167       -1.29507411
 C           -2.39211300        1.40983145       -1.53472744
 C           -2.58968209       -0.74992083       -2.43399666
 C           -0.45526837        1.96582131       -2.92029455
 C            0.58958834        1.31335400       -3.69813066
 C            0.37491314       -0.02398049       -4.22234504
 C           -0.93077097       -0.63832755       -4.08049056
 C           -1.71519058        1.39532825       -2.81754671
 C           -1.99908334        0.11065381       -3.44522036
