54
Modified xyz file
 C            1.60684939        0.10204911        3.83908963
 C            0.81876763       -1.11653401        3.86923576
 C            1.54660333       -2.12297732        3.12054401
 C            2.64706616       -0.07055070        2.83778596
 C            2.66021757       -1.46112504        2.45221276
 C            2.43969954        0.92883181        1.80858827
 C            0.74138795        1.17710798        3.38906607
 C            1.37457950        1.80789367        2.24905037
 C           -0.53749468       -0.78401088        3.46591513
 C           -0.59526909        0.64632555        3.20391057
 C           -1.23120175       -1.64843140        2.62949591
 C            0.83930986       -2.90221681        2.11837179
 C           -0.53876321       -2.75662282        1.97930926
 C            2.57611607       -1.78979765        1.04263748
 C            1.67526505       -2.91999153        0.92946014
 C            2.47023653        0.57405578        0.45992884
 C            2.50930510       -0.78058710        0.07842125
 C            2.00747674        1.51944545       -0.45698479
 C            0.55575977        2.34562331        1.26751675
 C            1.08017857        2.47623714       -0.01509414
 C           -1.33174996        1.11621060        2.11762745
 C           -0.82748049        2.20963756        1.40373562
 C           -2.17802282       -1.09683137        1.67717180
 C           -2.27958452        0.28054752        1.51309751
 C           -1.14749170       -2.95759889        0.67293581
 C           -2.18020475       -1.94405288        0.49506112
 C            1.09691386       -3.17180682       -0.30531454
 C           -0.34922509       -3.32032024       -0.40349644
 C            2.14591223       -1.14218149       -1.22551528
 C            1.51901992       -2.37218689       -1.44228290
 C            2.13278756        1.22754396       -1.81047934
 C            2.07825375       -0.16143798       -2.21513760
 C            1.40902411        2.00256723       -2.79866467
 C            0.37657490        3.26720865       -0.92058217
 C            0.52020810        3.04922331       -2.34530995
 C           -1.64843928        2.84278517        0.47573814
 C           -1.03215527        3.50757525       -0.66284170
 C           -2.96415766        0.73759422        0.39191888
 C           -2.80320598        2.12032806       -0.01546100
 C           -2.39948244       -1.36118832       -0.75614189
 C           -2.95658742       -0.08495032       -0.81079498
 C           -0.74100641       -2.89918861       -1.73534368
 C            0.45952198       -2.46235155       -2.42836743
 C           -1.73777531       -1.85305620       -1.88084958
 C            1.07656547       -0.26916663       -3.27191694
 C            0.62038675        1.06965518       -3.58621308
 C            0.13017908       -1.27804157       -3.19355942
 C           -1.25159498       -0.92249098       -2.89039237
 C           -0.80456968        2.75988973       -2.87277261
 C           -1.77060358        3.12899806       -1.85876265
 C           -2.76692871        2.15487692       -1.46825130
 C           -2.64256734        0.78364954       -1.93543803
 C           -0.77775484        1.39285092       -3.36630006
 C           -1.62084956        0.42098432       -2.81555777
