54
Modified xyz file
 C            1.44504048        0.06303736        3.84687352
 C            0.63318588       -1.13897790        3.74286063
 C            1.39440382       -2.11321739        2.99784872
 C            2.54081212       -0.07043445        2.90375979
 C            2.62398713       -1.46734287        2.55069896
 C            2.33913072        0.89921613        1.84024207
 C            0.62708722        1.18023037        3.41366163
 C            1.24420937        1.76580822        2.24508514
 C           -0.66714693       -0.74615142        3.23779942
 C           -0.73328908        0.70695663        3.27547434
 C           -1.22955294       -1.40742108        2.14178736
 C            0.78912657       -2.72128822        1.82646784
 C           -0.42331831       -2.22897726        1.33485208
 C            2.78502592       -1.80823299        1.15404272
 C            1.88393871       -2.91757637        0.89900530
 C            2.42057798        0.49417568        0.50287786
 C            2.87512577       -0.79807222        0.19361335
 C            1.75500897        1.25753267       -0.46917091
 C            0.40493817        2.25397154        1.25868990
 C            0.86883047        2.26338434       -0.05088898
 C           -1.55047589        1.32842712        2.33984756
 C           -0.97610390        2.28423149        1.48853846
 C           -2.37637606       -0.83563933        1.59471995
 C           -2.61566915        0.57147243        1.86407621
 C           -2.67817570       -1.04642058        0.19179935
 C           -0.68560390       -2.34297353       -0.03863782
 C           -1.68674864       -1.56666005       -0.62593620
 C            1.58477484       -3.20023970       -0.42081599
 C            0.20459966       -3.04173133       -0.85297666
 C            2.89144815       -1.21071253       -1.13403037
 C            2.39942185       -2.54913329       -1.42756736
 C            1.84259113        0.90436081       -1.82427282
 C            2.39541909       -0.32447557       -2.17011245
 C            0.96685071        1.48203325       -2.74383601
 C            0.18395814        3.03923231       -0.97781024
 C            0.21664447        2.66304048       -2.37107294
 C           -1.78485666        2.94252013        0.56079754
 C           -1.18038098        3.43478847       -0.66863467
 C           -3.43930920        1.09284883        0.79380453
 C           -3.45143207        0.09447331       -0.26613497
 C           -3.06932839        2.36274417        0.20406283
 C           -1.15903174        2.44644739       -2.79149805
 C           -2.02430601        3.01635153       -1.77951294
 C           -3.05650583        0.75381089       -1.49475951
 C           -3.08122273        2.18634754       -1.23631835
 C           -1.51822104       -1.05881866       -1.92331616
 C            0.05690462        0.61268074       -3.47750800
 C           -2.01897551        0.20721433       -2.24802588
 C           -1.27499744        1.03183142       -3.09349656
 C            0.23025062       -2.74332806       -2.27305366
 C            1.61386365       -2.49440176       -2.64286786
 C            1.68551638       -1.13813684       -3.14528557
 C           -0.55846505       -1.62628640       -2.76046437
 C            0.33682055       -0.74251981       -3.49528172
