54
Modified xyz file
 C            1.25698823        0.02419502        3.47663523
 C            2.47848812       -0.30730823        2.78172094
 C            2.36927677       -1.68430011        2.31869896
 C            0.44085849       -1.17660760        3.52370016
 C            1.01336998       -2.12914503        2.58973405
 C           -0.94082609       -0.78039665        3.34206387
 C            0.42755904        1.09048595        2.95349796
 C           -0.95578663        0.64467316        3.02869782
 C            0.83986286        1.82895094        1.84512697
 C            2.86804968        0.49734472        1.64338438
 C            2.07483531        1.56944755        1.22624116
 C            2.87239009       -1.73286284        0.95775424
 C            3.40399967       -0.41519709        0.64748875
 C            2.14345950       -2.41884064       -0.00384495
 C            0.22117864       -2.61884557        1.54942556
 C            0.79307816       -2.87593188        0.30111186
 C           -1.76969143       -1.62609918        2.62440664
 C           -1.16980899       -2.53184298        1.65023217
 C           -2.96141667       -1.06123593        2.02461578
 C           -1.88380196        1.14273194        2.11037347
 C           -2.99647653        0.36848796        1.77551637
 C           -0.12051230        2.59894438        1.19352485
 C           -1.52362532        2.22730397        1.30699152
 C            0.11089747        3.07657405       -0.15795401
 C            2.37256411        2.15330699       -0.00558711
 C            1.33989998        2.84718535       -0.75543644
 C            3.46842241        0.00899599       -0.67351640
 C            3.17744187        1.40364286       -0.95691188
 C            2.16076752       -1.95834595       -1.38387019
 C            2.84465317       -0.79293052       -1.71808743
 C           -0.01222987       -2.71683287       -0.90134523
 C            0.85089551       -2.22266488       -1.95917501
 C           -1.96685061       -2.45713852        0.43484092
 C           -3.17882088       -1.73047755        0.75376409
 C           -1.32160984       -2.25669689       -0.78471205
 C           -3.64463400        0.55200138        0.48863893
 C           -3.65960857       -0.74133426       -0.18180959
 C           -2.14214014        2.42000095        0.00095009
 C           -1.11510968        2.88672124       -0.91786098
 C           -3.10585678        1.52558817       -0.44384125
 C           -1.05905633        2.37827367       -2.21243861
 C            1.40415707        2.39466497       -2.13827017
 C            2.52491004        1.47472128       -2.25232080
 C            2.28728835        0.11482699       -2.70992793
 C            0.23149393        2.12145891       -2.83449955
 C            0.32754606       -1.36676678       -2.91499392
 C            1.07924861       -0.18978936       -3.32828804
 C            0.12583606        0.87872461       -3.58258602
 C           -1.84297575       -1.36360647       -1.73660151
 C           -2.96085277       -0.57974722       -1.43906027
 C           -2.91855866        0.84618189       -1.71602222
 C           -1.97332671        1.31840674       -2.61751124
 C           -1.07715117       -1.00319441       -2.84590413
 C           -1.20868902        0.34429780       -3.37675979
