54
Modified xyz file
 C            1.35813246        0.00933439        3.99334599
 C            0.54973772       -1.15182233        3.67035567
 C            1.40331599       -2.06632064        2.94749998
 C            2.50889978       -0.00526726        3.10444765
 C            2.60781302       -1.34019335        2.56145128
 C            2.36222732        1.10742765        2.18262008
 C            0.57923655        1.18588215        3.66582715
 C            1.37807633        2.00229443        2.77137882
 C           -0.66854045       -0.68706800        3.02476726
 C           -0.72720085        0.75377453        3.19469306
 C           -1.05473369       -1.24107119        1.80343942
 C            0.87910755       -2.68048574        1.74659392
 C           -0.42186710       -2.40434798        1.33985150
 C            2.75455179       -1.49425167        1.12684135
 C            1.92689141       -2.62248196        0.74463232
 C            2.32910316        0.86437516        0.80421595
 C            2.75960748       -0.37350077        0.29929960
 C            1.65668072        1.76890859       -0.02980737
 C            0.69054283        2.85869070        1.93098405
 C            1.06342625        2.89591737        0.53082871
 C           -1.33337566        1.51997875        2.20709023
 C           -0.75561614        2.75928979        1.91987543
 C           -1.84768653       -0.48002465        0.93245249
 C           -2.08613136        0.87767809        1.21753972
 C           -2.36190669       -1.07344619       -0.23153227
 C           -0.79048812       -2.92229887        0.10844658
 C           -1.88506657       -2.31989974       -0.62180756
 C            1.55663253       -2.74675410       -0.59121248
 C            0.26512237       -3.21469784       -0.85083232
 C            2.68079979       -0.61245236       -1.06871311
 C            2.19079226       -1.90939889       -1.51437597
 C            1.35428291        1.41256552       -1.34599198
 C            2.08089630        0.38728877       -1.93073802
 C            0.16215279        1.85079551       -1.94336876
 C           -0.04787931        3.52478698       -0.16106854
 C           -1.18738316        3.49576126        0.75029945
 C           -0.49193480        2.96796102       -1.42430345
 C           -2.81248359        1.66611593        0.32460879
 C           -2.32508858        2.99643719        0.01169118
 C           -1.94244852        2.98031886       -1.38759228
 C           -2.98577622       -0.29284318       -1.20057589
 C           -3.26301163        1.10040288       -0.92666042
 C           -2.65192186        1.87906861       -1.99890055
 C           -0.51124237        1.03101455       -2.86256871
 C           -2.49896720       -0.35338679       -2.56964831
 C           -1.90182604        0.94370508       -2.81119629
 C           -1.65272816       -2.57588314       -2.03742834
 C           -0.30907156       -3.11573990       -2.18110740
 C           -1.80167259       -1.48068592       -2.98028329
 C            1.64891534       -1.72987161       -2.85140742
 C            1.53524088       -0.29777523       -3.08619184
 C            0.16953524       -0.01530120       -3.47738949
 C            0.38090363       -2.34252772       -3.19232388
 C           -0.51657566       -1.28997554       -3.63805171
