54
Modified xyz file
C          1.43131       -0.22321        4.19195
C          0.55636       -1.36877        4.19287
C          1.12342       -2.29973        3.24090
C          2.56749       -0.45041        3.34993
C          2.44735       -1.80345        2.80416
C          2.53528        0.65115        2.36844
C          0.71570        0.86641        3.58301
C          1.40827        1.56761        2.68713
C         -0.77407       -0.98710        3.72638
C         -0.63735        0.42324        3.27086
C          0.08743       -2.57270        2.22857
C         -1.17917       -1.93746        2.65840
C          0.46234       -2.59560        0.78692
C          2.83708       -1.96568        1.40099
C          1.83392       -2.49183        0.45820
C          2.93314        0.49388        1.08093
C          3.36363       -0.79414        0.63620
C          2.45914        1.37985        0.07898
C          0.73128        2.40003        1.60631
C          1.47114        2.25740        0.31476
C         -1.35879        0.88953        2.24029
C         -0.73964        1.95586        1.34573
C         -2.20354       -1.51465        1.62720
C         -2.56721        0.03237        1.83578
C         -0.49067       -2.24093       -0.22794
C         -1.78703       -1.79714        0.16792
C         -0.05598       -1.92093       -1.58476
C          2.20171       -2.09149       -0.78938
C          3.19779       -1.08035       -0.71853
C          1.33379       -1.83953       -1.80805
C          2.57359        1.14621       -1.29974
C          2.88241       -0.15859       -1.70787
C          1.92632       -0.79280       -2.65123
C          0.80794        2.55700       -0.93881
C          1.64273        2.01119       -2.02740
C         -1.34978        2.21462        0.13875
C         -0.55309        2.60306       -1.03305
C         -3.29065        0.59581        0.64408
C         -2.65648        1.69391       -0.12119
C         -2.64860       -1.26921       -0.79453
C         -3.73486       -0.33445       -0.43668
C         -0.94286       -1.28792       -2.51124
C         -2.27891       -1.07992       -2.12246
C          1.00988        0.02288       -3.46064
C          0.98757        1.49201       -3.24585
C         -0.39165       -0.41980       -3.63663
C         -1.13137        2.43565       -2.32874
C         -0.37139        1.92453       -3.48186
C         -1.16519        0.80003       -3.98896
C         -3.16668        1.64444       -1.39315
C         -3.91916        0.45125       -1.64161
C         -3.20086       -0.12901       -2.77228
C         -2.40628        1.97123       -2.45937
C         -2.52675        0.96567       -3.48367

