54
Modified xyz file
 C            1.58033735        0.11836045        3.92953839
 C            0.77576022       -1.07321316        3.75089525
 C            1.60400976       -2.02489825        3.04746416
 C            2.65262593        0.06593920        2.94625282
 C            2.71289107       -1.28608959        2.45198928
 C            2.41987910        1.14081061        2.00118463
 C            0.75236163        1.25712551        3.59093906
 C            1.51541458        2.06549846        2.66358438
 C           -0.48683051       -0.67978746        3.14380788
 C           -0.54305774        0.77244947        3.13843207
 C           -0.95221220       -1.37492967        2.03301353
 C            0.99797067       -2.78659619        1.97757432
 C           -0.34806236       -2.59185869        1.67532926
 C            2.64007411       -1.50699151        1.02121551
 C            1.94393925       -2.76862650        0.87873440
 C            2.22486365        0.86285971        0.63892338
 C            2.29982177       -0.45617752        0.16227807
 C            1.65100495        1.85996633       -0.16045865
 C            0.79480147        2.92051630        1.85851916
 C            1.18651426        3.01842204        0.47340279
 C           -1.13248207        1.44102577        2.06422244
 C           -0.64301517        2.71756837        1.79591218
 C           -1.76273201       -0.70018867        1.11596485
 C           -1.70103659        0.69492646        1.01648050
 C           -2.42811911       -1.42625830        0.13901853
 C           -0.83292778       -3.28619367        0.57207744
 C           -2.01053562       -2.79018709       -0.11320091
 C            1.46677661       -3.11317802       -0.37225330
 C            0.13206692       -3.68644466       -0.44095603
 C            1.77090664       -0.77257812       -1.09274461
 C            1.53957923       -2.11459335       -1.42523002
 C            1.22297557        1.55910891       -1.46336984
 C            1.28370477        0.23628508       -1.92786963
 C            0.55609223        2.53847392       -2.21452834
 C            0.11555221        3.78359238       -0.12460572
 C           -1.08882516        3.41284121        0.61015718
 C           -0.16136671        3.58684130       -1.52324764
 C           -2.11151427        1.33027276       -0.17363491
 C           -1.93615024        2.70837440       -0.32252727
 C           -1.56823100        3.23520081       -1.62073430
 C           -2.69619983       -0.80384241       -1.14207959
 C           -2.49030720        0.56557487       -1.28943562
 C           -1.78993330       -2.93435637       -1.54341794
 C           -0.41855001       -3.36130617       -1.74219269
 C            0.50839464       -2.44907466       -2.39454212
 C           -2.21985971       -1.70833939       -2.18378260
 C            0.63540069       -0.13153615       -3.11258854
 C            0.00263610       -1.43304971       -3.18928625
 C           -1.43726775       -1.18836490       -3.20732178
 C           -0.34465794        2.14072495       -3.27499750
 C           -1.69240080        2.36911265       -2.76875871
 C           -2.28019599        1.06025299       -2.58145501
 C           -0.29306808        0.77803592       -3.74471970
 C           -1.61681625        0.20849933       -3.54697223
