54
Modified xyz file
 C            1.48894172       -0.11021318        4.05283558
 C            0.63878520       -1.28937741        4.08706120
 C            1.17853673       -2.24936920        3.14386230
 C            2.53557332       -0.34675857        3.07620542
 C            2.45500472       -1.73922675        2.67098229
 C            2.44444753        0.68198244        2.04585609
 C            0.68813970        0.99722772        3.56865774
 C            1.33526559        1.55223281        2.38889223
 C           -0.67500387       -0.90294601        3.60785592
 C           -0.68290924        0.53798567        3.43061168
 C            0.14658516       -2.55500935        2.15920026
 C           -1.00796481       -1.72729453        2.45524210
 C            0.53400262       -2.73091177        0.83588358
 C            2.81704391       -2.04522769        1.37173167
 C            1.90271035       -2.84736912        0.58414418
 C            2.63680657        0.30673574        0.71799015
 C            3.18660972       -0.95423597        0.48813772
 C            1.89636640        0.93918620       -0.29673862
 C            0.51352641        2.02593482        1.37581118
 C            0.91676487        1.89182847        0.04458588
 C           -1.41002539        1.04084470        2.36232848
 C           -0.84977454        2.09486304        1.64690896
 C           -1.69722581       -1.12005995        1.41101324
 C           -2.21055914        0.15154508        1.64894879
 C           -0.32965641       -2.32319407       -0.19279621
 C           -1.42058129       -1.48870876        0.08845952
 C            0.03219118       -2.54581342       -1.51927887
 C            2.39369367       -2.75360326       -0.77281724
 C            3.15934567       -1.51164415       -0.84543030
 C            1.43135339       -2.73609647       -1.84953140
 C            2.05583846        0.53388805       -1.63481854
 C            2.59330381       -0.72321741       -1.91242008
 C            1.80798561       -1.63833877       -2.71591988
 C            1.26900552        1.11536802       -2.62846008
 C            0.10976543        2.46421048       -0.94585822
 C            0.37755788        2.20552538       -2.28789521
 C           -1.66653361        2.73138554        0.72762974
 C           -1.10869427        3.04543267       -0.57534564
 C           -3.06693376        0.69612854        0.70589693
 C           -2.96311066        2.12625814        0.48863273
 C           -2.10189785       -0.83142188       -0.95135497
 C           -3.10505789        0.08174482       -0.60949439
 C           -0.52333555       -1.69989871       -2.55846485
 C            0.59537940       -1.12245346       -3.30315991
 C            0.55687307        0.23748982       -3.55705666
 C           -1.61892274       -0.88822095       -2.27148376
 C           -0.71011923        2.16690225       -3.25405617
 C           -0.74488515        0.81912944       -3.78142382
 C           -1.87577686        0.16232845       -3.15974400
 C           -2.22313388        3.07420401       -1.51255061
 C           -3.34322575        2.39971848       -0.88152232
 C           -3.50156174        1.11858758       -1.54759213
 C           -2.05589978        2.46851437       -2.81297957
 C           -2.80461443        1.21342809       -2.80717212
