54
Modified xyz file
 C            1.52216924       -0.21348432        4.39644512
 C            0.61593943       -1.33609701        4.54405340
 C            1.13508547       -2.43176287        3.74199233
 C            2.53636089       -0.58589931        3.42289094
 C            2.26916443       -1.93421275        2.98144355
 C            2.56713872        0.45134974        2.41791593
 C            0.76812732        0.89784850        3.83604096
 C            1.53289683        1.42524984        2.73415649
 C           -0.66367743       -0.94277780        3.97930716
 C           -0.57346452        0.44618776        3.55385973
 C            0.10727658       -2.80402019        2.78803564
 C           -1.03717088       -1.93391869        2.98488581
 C            1.99208733       -2.15051769        1.56930287
 C            0.70943397       -2.82571331        1.46629927
 C            2.72403425        0.11012832        1.07738020
 C            2.28208344       -1.15057572        0.63763197
 C            2.61413729        1.17582159        0.19552752
 C            0.86024351        1.99325773        1.65703155
 C            1.63924594        2.20331643        0.52995024
 C           -1.14345201        0.78253603        2.32819021
 C           -0.50301731        1.70005212        1.47337620
 C           -1.69033002       -1.48788276        1.84413010
 C           -2.02529895       -0.13628922        1.76994786
 C           -0.10269258       -2.50679086        0.38348065
 C           -1.42434269       -2.14916055        0.64637070
 C            1.68869262       -1.25459092       -0.62707014
 C            0.49894306       -1.98425568       -0.76017014
 C            2.48075003        0.91531412       -1.22073742
 C            2.04781317       -0.34228500       -1.62032747
 C            1.01172822        2.62143361       -0.70040147
 C            1.83472894        2.09202586       -1.77565511
 C           -1.11933990        2.00376729        0.24305121
 C           -0.37157532        2.55423151       -0.81051620
 C           -2.79921641        0.27546179        0.69850893
 C           -2.38265734        1.46703528       -0.01934135
 C           -2.25402985       -1.86515077       -0.43017087
 C           -3.14093735       -0.72387003       -0.29601724
 C           -0.28607410       -1.81761932       -1.90168844
 C           -1.67573649       -1.80352778       -1.76403865
 C            1.49727616       -0.47598053       -2.89189862
 C            0.29147533       -1.27006385       -3.04210585
 C            1.28937123        2.00717232       -3.04524834
 C            1.34203505        0.71768373       -3.71113068
 C           -0.92646852        2.66209983       -2.08821844
 C           -0.04567887        2.54324282       -3.24382917
 C           -2.85120882        1.32914203       -1.39001648
 C           -3.22484374       -0.06234735       -1.58224361
 C           -2.47606867       -0.86055648       -2.53749220
 C           -2.16104198        1.96585020       -2.40761565
 C           -0.56057887       -0.61146315       -4.01958938
 C            0.13428950        0.56907430       -4.50251234
 C           -0.71063303        1.72264376       -4.24122555
 C           -1.89637236       -0.21294138       -3.61871103
 C           -1.94661997        1.24182876       -3.65323468
