54
Modified xyz file
 C            1.31761486       -0.11672073        3.64028211
 C            2.56354084       -0.30928283        2.92335456
 C            2.55558227       -1.65077710        2.36782391
 C            0.49658462       -1.29856983        3.43868872
 C            1.28599409       -2.27609160        2.71164347
 C           -0.77691142       -0.87205045        2.88220155
 C            0.51103560        1.04535536        3.31980809
 C           -0.80024338        0.57705466        2.88465872
 C            1.10229043        2.10399638        2.64216812
 C            2.90289061        0.61633491        1.85496286
 C            2.27581028        1.85392381        1.80842129
 C            2.94510470       -1.55853864        0.96843544
 C            3.03192543       -0.14822412        0.62385881
 C            2.38055094       -2.44070589        0.05971364
 C            0.65210528       -3.06306260        1.75954221
 C            1.35579665       -3.36116060        0.52378569
 C           -1.30035519       -1.55021224        1.78832716
 C           -0.72850404       -2.76652808        1.40195274
 C           -2.16298881       -0.88293776        0.91458008
 C           -1.46211515        1.24472364        1.85619323
 C           -2.24540056        0.52108490        0.95040665
 C            0.23795627        3.01281000        1.91435948
 C           -1.08711157        2.55414253        1.54609473
 C            2.02191399        2.45697551        0.51364340
 C            0.91754134        3.38259997        0.68534415
 C            2.43141956        0.32030310       -0.54756210
 C            2.06637944        1.67385217       -0.63882882
 C            1.97044902       -1.94918180       -1.24413494
 C            2.06512692       -0.59441315       -1.54857620
 C            0.36441954       -3.50127011       -0.52937127
 C           -0.94279713       -3.27152033        0.05355123
 C            0.77467461       -2.67434230       -1.64983133
 C           -2.69694203       -1.60119393       -0.15659175
 C           -1.90881174       -2.66925226       -0.73468680
 C           -3.31836675       -0.91145492       -1.26888481
 C           -2.90393550        1.22308870       -0.06221552
 C           -3.44834041        0.52419902       -1.20817922
 C           -1.36257307        3.08712721        0.22231698
 C           -0.08416480        3.46859183       -0.36433742
 C           -2.31433884        2.45110965       -0.56103667
 C            1.42420243        2.15334665       -1.77851182
 C            0.24923221        3.00199730       -1.62991255
 C            1.38982250       -0.15614334       -2.68173368
 C            1.18556300        1.25894226       -2.88759550
 C           -0.20143763       -2.00255329       -2.38515462
 C           -1.54659293       -2.21998700       -2.07222076
 C           -2.55287352       -1.24562908       -2.46293215
 C            0.17632675       -0.85288669       -3.08259807
 C           -2.81894886        1.08097347       -2.39594541
 C           -2.06754917        2.25780430       -1.98287464
 C           -0.79151803        2.47022193       -2.49465352
 C           -0.18221644        1.45730415       -3.34161473
 C           -2.13693167       -0.00436518       -3.08460665
 C           -0.80988556        0.15119242       -3.46152809
