54
Modified xyz file
 C            1.50114583        0.02191278        3.96136824
 C            0.70894471       -1.19026054        3.87361349
 C            1.44437255       -2.14276267        3.06377906
 C            2.63192904       -0.12173946        3.05776836
 C            2.61553141       -1.46389514        2.52946782
 C            2.58329931        0.97774762        2.11840137
 C            0.68231176        1.12090837        3.47513765
 C            1.42765336        1.79896348        2.44655275
 C           -0.63013910       -0.81595660        3.45656004
 C           -0.61750926        0.60128161        3.12475331
 C           -1.33724192       -1.67535442        2.62792485
 C            0.75839356       -2.78905362        1.95692949
 C           -0.62316670       -2.70343247        1.87189620
 C            2.60565628       -1.63202350        1.08975734
 C            1.54606267       -2.57249921        0.75591196
 C            2.86575033        0.76602572        0.76642698
 C            2.82458613       -0.54205670        0.24399334
 C            2.60714970        1.84979295       -0.07407983
 C            0.74503898        2.37665862        1.38559911
 C            1.54951300        2.76262759        0.32512342
 C           -1.21413790        1.01845544        1.93428369
 C           -0.57925711        1.97426841        1.11498105
 C           -2.32508617       -1.10603401        1.73102055
 C           -2.26213210        0.25185121        1.42210034
 C           -1.24660243       -2.78630339        0.56286610
 C           -2.50459831       -2.06488278        0.65717028
 C            0.91479230       -2.45305496       -0.48294720
 C           -0.46925295       -2.65425359       -0.58914677
 C            2.56178771       -0.74515823       -1.11083431
 C            1.59443156       -1.76521829       -1.48764577
 C            2.49661666        1.66577752       -1.50824779
 C            2.40167496        0.37956400       -2.01392037
 C            0.93808821        3.29580753       -0.86420776
 C            1.61765511        2.70960163       -2.00946084
 C           -1.19851529        2.37400872       -0.08547423
 C           -0.48059461        3.09532443       -1.04302452
 C           -2.96711978        0.71282483        0.32040827
 C           -2.40872619        1.79275004       -0.46837483
 C           -3.12549476       -1.64422617       -0.50908575
 C           -3.55121865       -0.25697537       -0.59491723
 C           -1.11758190       -2.40043968       -1.79847975
 C           -2.51551922       -1.99699792       -1.77970120
 C            0.89016968       -1.30548350       -2.67172357
 C            1.36292526        0.03594397       -2.98042898
 C           -0.45085313       -1.62338064       -2.82919303
 C            0.60395502        2.37708641       -2.99204560
 C           -0.67971654        2.79289752       -2.44930071
 C            0.46623092        1.00120732       -3.43161173
 C           -2.64986234        1.48972664       -1.87557411
 C           -3.31686393        0.20395836       -1.95149417
 C           -2.67228997       -0.86937636       -2.68408916
 C           -1.38518167       -0.61436556       -3.30900155
 C           -1.66140693        1.78815467       -2.80381816
 C           -0.95559715        0.70005735       -3.47596614
