54
Modified xyz file
 C            1.56031114        0.00697474        3.70138163
 C            0.76802038       -1.20535433        3.59817803
 C            1.26606360       -1.96363467        2.46526337
 C            2.60889966       -0.07764143        2.70433429
 C            2.57124868       -1.41280934        2.13491609
 C            2.46487380        1.04924394        1.79662904
 C            0.69870814        1.11612860        3.33705246
 C            1.19728793        1.68742631        2.10218654
 C           -0.62293306       -0.81321423        3.58663652
 C           -0.66467239        0.62962319        3.35870083
 C           -1.50528787       -1.60575788        2.86678558
 C            0.37687278       -2.30349422        1.43873608
 C           -0.98835185       -2.33606965        1.71034654
 C            0.81050121       -2.24718827        0.11071799
 C            3.03065634       -1.55415124        0.83845837
 C            2.18395769       -2.24310783       -0.11454677
 C            2.80490161        0.84748581        0.46400699
 C            3.44584201       -0.35226961        0.14428104
 C            2.07370293        1.51080785       -0.52910545
 C            0.29777224        1.91666267        1.06883282
 C            0.76582660        1.95104241       -0.25018289
 C           -1.56736294        1.12052299        2.41878927
 C           -1.07713782        1.85540694        1.32336598
 C           -2.75760513       -1.00179082        2.46342540
 C           -2.77805369        0.43753705        2.30280869
 C           -1.92199324       -2.14997700        0.61432770
 C           -3.12453775       -1.56968022        1.18063464
 C           -0.07302451       -1.81025785       -0.89627315
 C           -1.44249122       -1.69008736       -0.61284694
 C            0.39617493       -1.51564142       -2.18727917
 C            2.69718726       -1.89620785       -1.42280666
 C            3.57539420       -0.74336556       -1.24326312
 C            1.76251628       -1.55835705       -2.47026828
 C            2.51890491        1.41912665       -1.84801522
 C            3.23183789        0.22538672       -2.25955587
 C            2.36921522       -0.45823887       -3.20192826
 C            1.61684211        1.73921480       -2.93130344
 C            1.50258758        0.54942057       -3.77231006
 C           -0.09844940        2.35776734       -1.28129572
 C            0.27657997        2.17759518       -2.61258125
 C           -1.95280007        2.31473775        0.34520166
 C           -1.46665888        2.47141404       -1.01592118
 C           -3.66280672        0.71455375        1.19323125
 C           -3.80315409       -0.52877870        0.44144697
 C           -3.28788770        1.75332130        0.25858457
 C           -2.27598511       -0.93029086       -1.45118621
 C           -2.40849136        1.79144944       -1.90287905
 C           -3.37140126       -0.25298728       -0.91067048
 C           -3.42059407        1.18587364       -1.06758539
 C           -0.44196505       -0.85082857       -3.08038498
 C            0.09335277        0.23919001       -3.88029926
 C           -0.61819314        1.43178683       -3.47519989
 C           -1.75859789       -0.43120466       -2.64372398
 C           -1.87560362        1.00268627       -2.90784766
