54
Modified xyz file
 C            1.11388742       -0.14093155        3.84094447
 C            2.35710213       -0.35323823        3.12427768
 C            2.22610367       -1.59906017        2.38099414
 C            0.27016392       -1.29904668        3.59300375
 C            0.84308174       -2.01610525        2.47145640
 C           -1.09165691       -0.83104279        3.48666225
 C            0.32084720        1.04288586        3.55641636
 C           -1.06779443        0.62623960        3.50574009
 C            0.77898334        1.98013697        2.63662297
 C            2.82468621        0.66011455        2.19483277
 C            2.08923116        1.82836907        2.01439622
 C            2.79249242       -1.38632380        1.06449121
 C            3.34855601       -0.04061241        1.03590768
 C            2.10998085       -1.85476259       -0.05555469
 C            0.11273940       -2.15420776        1.29126658
 C            0.79910354       -2.33282175        0.08487570
 C           -1.87065939       -1.21992719        2.32815312
 C           -1.27297976       -1.92441438        1.28092865
 C           -1.91018335        1.07999019        2.40913866
 C           -2.68930818       -0.07310284        1.99975491
 C           -0.13200196        2.51137603        1.63164551
 C           -1.37801828        1.91488566        1.42622117
 C            2.02621289        2.44375813        0.69645558
 C            0.66872484        2.93029826        0.49420382
 C            3.43271797        0.61940299       -0.18458456
 C            2.72868966        1.88231686       -0.36630706
 C            2.55379256       -1.42904939       -1.30505993
 C            3.25394724       -0.15988026       -1.39720675
 C            1.66950165       -1.51558396       -2.45009745
 C            0.08549515       -2.72904258       -1.04286716
 C            0.54423643       -2.31854087       -2.36255048
 C           -1.97290671       -2.01003666        0.07325440
 C           -1.36207335       -2.62188826       -1.02129888
 C           -3.28575623       -0.05103483        0.75419990
 C           -3.10508669       -1.20545976       -0.10611704
 C           -1.95889206        1.92125630        0.15200559
 C           -3.06532856        1.10713099       -0.09280011
 C            0.10549498        2.90769761       -0.77294248
 C           -1.27816057        2.49166033       -0.92553519
 C            2.14831347        1.88761016       -1.70180182
 C            2.54595107        0.66199085       -2.36442634
 C            1.52693912       -0.16757047       -2.98445391
 C            0.85901517        2.36710493       -1.89594978
 C           -1.41248345        1.92019732       -2.25819388
 C            0.24827291        0.34584450       -3.20032558
 C           -0.07093224        1.62891449       -2.74324106
 C           -0.62319814       -1.94038381       -3.13653743
 C           -1.79906031       -2.31924293       -2.37590771
 C           -0.77485403       -0.54643798       -3.51733284
 C           -3.49545578       -0.76513221       -1.43454423
 C           -3.36376623        0.68482255       -1.45373886
 C           -2.44548777        1.03262956       -2.52215790
 C           -2.79967162       -1.29346122       -2.58677503
 C           -2.15854816       -0.17829118       -3.26954142
