54
Modified xyz file
 C            1.34594535       -0.13652994        3.65310218
 C            2.53803835       -0.36459302        2.85882124
 C            2.48657299       -1.72805312        2.36136666
 C            0.48795635       -1.30459717        3.51573771
 C            1.19388232       -2.29247187        2.72289950
 C           -0.81041462       -0.84107145        3.06044100
 C            0.53286488        1.03720091        3.38193078
 C           -0.84889015        0.59155890        3.29218228
 C            0.99602643        2.00260576        2.49238945
 C            2.81245070        0.51037609        1.73235247
 C            2.12502190        1.71049042        1.61514218
 C            2.88444521       -1.70913821        0.96145751
 C            2.99537592       -0.31768322        0.54996863
 C            2.30711767       -2.62290226        0.09174288
 C            0.48688802       -3.00698301        1.76439121
 C            1.18095278       -3.41665642        0.55751053
 C           -1.34826859       -1.35980311        1.88099868
 C           -0.84294888       -2.55115426        1.36938403
 C           -2.17111745       -0.55348396        1.08696582
 C           -1.76263266        1.34777921        2.57508550
 C           -2.60736139        0.66378861        1.61674685
 C            0.03504022        2.79179441        1.73605158
 C           -1.32299620        2.57612302        1.92951260
 C            1.79628410        2.20559444        0.29260834
 C            0.55190200        2.95330776        0.38279543
 C            2.45462813        0.08803694       -0.67238620
 C            2.02433082        1.41566774       -0.82923608
 C            2.01415847       -2.21366834       -1.27057481
 C            2.17044629       -0.87896153       -1.64936466
 C            0.20358768       -3.47407877       -0.51319548
 C           -1.01750054       -2.84680586       -0.04003816
 C            0.82683654       -2.93830883       -1.70568073
 C           -2.31883285       -0.83109628       -0.28474072
 C           -1.64443332       -1.91359051       -0.85910168
 C           -2.96616488        0.07383134       -1.12909612
 C           -3.14403939        1.69156039        0.75061505
 C           -2.23501101        2.82654018        0.82819761
 C           -3.34570155        1.38443671       -0.64489584
 C           -0.31609023        2.95972511       -0.71181208
 C           -1.69520042        3.03663698       -0.50381116
 C           -2.59443224        2.35845897       -1.42115183
 C            1.43013778        1.82097625       -2.01732905
 C            0.17274086        2.55245310       -1.95625445
 C            1.65957874       -0.49365278       -2.88664195
 C            1.36181179        0.90092894       -3.12921195
 C            0.00608328       -2.33592787       -2.64636256
 C           -1.31266100       -1.88327282       -2.21901784
 C            0.57574044       -1.27576365       -3.45521859
 C           -2.45417971        0.26960334       -2.47133943
 C           -2.03231149        1.66442859       -2.56364984
 C           -0.72829672        1.96193192       -2.93694701
 C            0.02599542        0.98574085       -3.70138828
 C           -1.66754910       -0.72868905       -3.03117830
 C           -0.49580705       -0.36263959       -3.81077293
