54
Modified xyz file
 C            1.17659543        0.06209840        3.49367050
 C            2.39392980       -0.18308156        2.75818448
 C            2.35158561       -1.55863090        2.29487328
 C            0.33197109       -1.11965110        3.36454696
 C            0.98585228       -2.02645388        2.44900974
 C           -1.00481951       -0.66367632        3.05367598
 C            0.36483423        1.20587161        3.13206986
 C           -1.01543705        0.77519107        3.26367536
 C            0.72285258        2.01485557        2.05061982
 C            2.69198833        0.65031380        1.61220659
 C            1.86551963        1.72528424        1.28358031
 C            2.94333073       -1.59999940        0.97103142
 C            3.17050599       -0.22082840        0.54876464
 C            2.42148929       -2.50204626        0.05783004
 C            0.30660831       -2.47740311        1.31938210
 C            1.06717077       -2.99767775        0.26959418
 C           -1.67376697       -1.19067900        1.95238986
 C           -1.02591513       -2.09450035        1.09380293
 C           -2.83064469       -0.54184684        1.52299742
 C           -2.01273273        1.53275806        2.66581451
 C           -3.04357577        0.84677749        1.90474272
 C           -0.22956447        2.90956576        1.56291206
 C           -1.62931948        2.71963243        1.91932420
 C           -0.20016118        3.30525713        0.16809853
 C            2.01543710        2.28507660        0.01491511
 C            0.95314799        3.09077748       -0.56545363
 C            2.95341119        0.15496896       -0.77932228
 C            2.59868539        1.47645377       -1.04726423
 C            2.56422167       -2.20729277       -1.35182482
 C            2.74833855       -0.82515782       -1.75565186
 C            0.46573117       -3.22240310       -1.03272822
 C            1.39258486       -2.72486896       -2.03860111
 C           -1.67257543       -2.51098685       -0.07302533
 C           -0.89310585       -3.00324704       -1.19753326
 C           -3.25266201       -0.66460336        0.14158468
 C           -2.76443893       -1.71625131       -0.61360514
 C           -3.28496465        1.60453111        0.68541779
 C           -2.40699208        2.74972114        0.68897536
 C           -1.47660483        2.91388987       -0.40917216
 C           -3.20899599        0.67488677       -0.42368457
 C           -1.49279291        2.03186282       -1.49338295
 C           -2.36321813        0.92799984       -1.50739886
 C            0.81712095        2.70489935       -1.95879800
 C            1.90134168        1.79420115       -2.28083080
 C           -0.42641028        2.08956628       -2.39121731
 C            1.84053539       -0.57270839       -2.86835515
 C            0.94509737       -1.71396997       -2.98370178
 C            1.35361979        0.71103621       -3.07398272
 C           -0.08166749        0.92959025       -3.19373354
 C           -1.35615720       -2.31563408       -2.39261577
 C           -2.46997151       -1.46637588       -2.01288868
 C           -2.16107984       -0.10597482       -2.42257013
 C           -0.41897748       -1.50849782       -3.15723218
 C           -0.94695558       -0.15262011       -3.21911595
