54
Modified xyz file
 C            1.55905646       -0.11081143        3.95878780
 C            0.74408830       -1.28238423        3.68534470
 C            1.52224890       -2.15674902        2.84284445
 C            2.65047258       -0.10853239        2.99897629
 C            2.70169226       -1.41906770        2.40096566
 C            2.47397358        1.03603444        2.13010974
 C            0.74043359        1.06044500        3.70027479
 C            1.39013496        1.84452595        2.66786866
 C           -0.54211923       -0.82073426        3.20120804
 C           -0.61180785        0.60962266        3.45635349
 C           -1.06684140       -1.32012166        2.00549050
 C            0.90470503       -2.70242325        1.65089261
 C           -0.38477371       -2.31339859        1.27719760
 C            2.73993313       -1.52198246        0.95420706
 C            1.93996554       -2.68766981        0.64001502
 C            2.57667961        0.89791263        0.74449639
 C            2.59277534       -0.37962223        0.15718233
 C            2.17697724        1.99001588       -0.01461015
 C            0.60270854        2.56018069        1.76925663
 C            1.18216156        2.89222843        0.54753487
 C           -1.40518692        1.38339956        2.62633932
 C           -0.79310223        2.47159951        1.86906110
 C           -2.12572056       -0.62953826        1.41215430
 C           -2.32734098        0.71487755        1.72816335
 C           -2.73471816       -1.15418718        0.27949537
 C           -0.80002374       -2.62536600       -0.02376597
 C           -2.03566559       -2.17096281       -0.48143167
 C            1.55305888       -2.86388230       -0.67118844
 C            0.14556678       -3.09510020       -0.93896383
 C            2.19000665       -0.55616028       -1.17788716
 C            1.96051184       -1.85999115       -1.63188534
 C            1.87898606        1.82272396       -1.42088546
 C            1.79868509        0.54416783       -1.95693191
 C            0.35477935        3.38108334       -0.53837692
 C            0.85591484        2.79709272       -1.77034773
 C           -1.63952024        2.70679241        0.70162177
 C           -2.65272045        1.66132115        0.67325252
 C           -1.07529514        3.15715649       -0.48529533
 C           -3.37340358       -0.24767237       -0.66172809
 C           -3.12011126        1.17716300       -0.54136301
 C           -2.23952383       -1.88866037       -1.89913887
 C           -3.00686827       -0.65953097       -2.00435873
 C           -0.03266024       -2.83651569       -2.35760370
 C            1.14019014       -2.09522100       -2.80408535
 C           -1.21044948       -2.11920142       -2.80240601
 C            1.02240172        0.36710295       -3.10631164
 C            0.68605394       -0.96160047       -3.57095554
 C           -0.76400049       -1.03670758       -3.66694420
 C           -0.28384464        2.35971567       -2.55649484
 C           -1.48113581        2.56647932       -1.75273477
 C           -2.50952429        1.62855201       -1.78400605
 C           -2.42446558        0.48683952       -2.68329909
 C           -0.15287238        1.19967314       -3.30782938
 C           -1.29046583        0.30708927       -3.46826519
