54
Modified xyz file
 C            1.34585707       -0.19487661        4.50122961
 C            0.51943781       -1.36323653        4.26364548
 C            1.16655960       -2.17678606        3.24590053
 C            2.53252810       -0.31642824        3.67258104
 C            2.39904227       -1.51883142        2.86267480
 C            2.71982220        0.95967366        3.00970849
 C            0.61144216        0.97265356        4.03640985
 C            1.51360175        1.75090279        3.22258954
 C           -0.73696137       -0.90325484        3.70414554
 C           -0.63338887        0.51761175        3.44364135
 C            0.17842978       -2.46381181        2.21721696
 C           -1.03804119       -1.75744731        2.57911310
 C            0.55745792       -2.46618173        0.86843035
 C            2.73127405       -1.47552364        1.51364071
 C            1.87222391       -2.13992411        0.53867846
 C            3.00308017        0.97353841        1.58557275
 C            3.18634256       -0.22699126        0.91354753
 C            1.05515397        2.19584893        1.92296600
 C            2.13912177        1.97496793        0.98763245
 C           -1.02001840        0.97149494        2.17836608
 C           -0.24491015        1.91821302        1.49488393
 C           -1.76389412       -1.22311040        1.53451340
 C           -1.88828054        0.16667148        1.43455680
 C           -0.44410528       -2.30264533       -0.10112652
 C           -1.71487370       -1.92349397        0.34712023
 C           -0.08699601       -2.06436389       -1.44120173
 C            2.15072453       -1.53178848       -0.74825707
 C            2.85071779       -0.28153914       -0.49633611
 C            1.17614397       -1.54118482       -1.73975746
 C            1.80083446        1.86936477       -0.35444069
 C            2.38484988        0.86298075       -1.13446000
 C           -0.52775344        2.14882507        0.14682452
 C            0.54798918        2.35140509       -0.72696202
 C           -2.42720956        0.67243269        0.24755573
 C           -1.76077101        1.73951470       -0.36858407
 C           -2.69079354       -1.60025074       -0.57361794
 C           -3.15348748       -0.22762543       -0.53890009
 C           -1.09459641       -2.00625409       -2.40794487
 C           -2.46773428       -1.94427425       -1.95534081
 C           -0.96760367       -1.08783703       -3.53126591
 C            1.30146035       -0.59141375       -2.75553721
 C            1.91117738        0.69115310       -2.43150264
 C            0.19956120       -0.34816888       -3.66979685
 C            0.30803656        2.54349014       -2.07998422
 C            1.06869374        1.72636551       -3.00130480
 C            0.13022883        1.08862915       -3.90582264
 C           -2.11246787        2.14607226       -1.65871186
 C           -1.06161462        2.58844330       -2.55386025
 C           -1.13809922        1.78169493       -3.76349844
 C           -3.55715325        0.13157308       -1.88260822
 C           -3.18359095       -0.96952190       -2.75976037
 C           -2.25938378       -0.44743155       -3.74642345
 C           -3.03184501        1.35015188       -2.45217812
 C           -2.35621926        1.00052433       -3.69396081
