54
Modified xyz file
 C            1.54270253        0.08101121        3.87980658
 C            0.70177523       -1.06415727        3.58501006
 C            1.23822305       -1.73388966        2.40986073
 C            2.53855187        0.17606136        2.82876206
 C            2.37598774       -0.96563113        1.94139954
 C            2.46613233        1.50955861        2.26000564
 C            0.71099194        1.26964189        3.80904618
 C            1.29912664        2.17096469        2.83000512
 C           -0.67754414       -0.61308897        3.55431536
 C           -0.66935562        0.84182700        3.64046251
 C           -1.54670414       -1.24648298        2.67651030
 C            0.35070140       -2.24957328        1.47147653
 C           -1.01215802       -2.25118798        1.77050340
 C            0.75348456       -2.35659896        0.13728929
 C            2.53350771       -0.77563337        0.57273818
 C            1.85372524       -1.61365563       -0.31571843
 C            2.74794724        1.65331911        0.90830997
 C            3.00045147        0.45820446        0.11840973
 C            1.93950688        2.54194686        0.08655456
 C            0.45821898        2.92189957        2.01384027
 C            0.77084264        3.08555487        0.60192216
 C           -1.51292981        1.59096883        2.82540324
 C           -0.98206982        2.75488851        2.13263849
 C           -2.51497349       -0.46577285        1.92056030
 C           -2.43620632        0.92011901        1.92233179
 C           -1.97422748       -2.39636506        0.69627685
 C           -2.74136968       -1.15947890        0.66125415
 C           -0.11650463       -2.95559727       -0.77667907
 C           -1.54673421       -2.93615117       -0.50640940
 C            0.06881262       -2.75741513       -2.20480415
 C            2.08886137       -1.46646465       -1.68467046
 C            1.15804616       -2.02194561       -2.65325514
 C            2.79860213        0.82631572       -1.26879729
 C            1.93005229        1.99473450       -1.26207889
 C            2.53924223       -0.17723011       -2.18868426
 C            0.73854359        1.94910872       -1.98487802
 C           -0.46398893        2.94544887       -0.15410215
 C           -1.54898458        2.77843970        0.79430520
 C           -2.41821493        1.62590780        0.65050366
 C           -0.46815180        2.17705480       -1.31510183
 C           -2.79500084       -0.43683049       -0.53000456
 C           -2.36697783        0.89487385       -0.53326602
 C           -1.57659272        1.36755179       -1.58660538
 C           -2.20838196       -2.48757624       -1.71765055
 C           -1.24532267       -2.55591326       -2.80028538
 C           -2.79136109       -1.15612105       -1.72333226
 C           -1.69809064        0.78283799       -2.84059545
 C           -1.47929225       -1.40766350       -3.65755174
 C           -2.36593369       -0.49873641       -2.94533180
 C            0.99182583       -1.04536489       -3.72134983
 C            1.70546137        0.15509595       -3.32905816
 C            0.73076404        1.22208036       -3.17350150
 C           -0.34250958       -0.64010265       -4.12558308
 C           -0.53250821        0.73921245       -3.70020704
