54
Modified xyz file
 C            1.17017120        0.19453734        3.84127940
 C            2.38421579        0.00409259        3.07816151
 C            2.38060197       -1.37055518        2.61542524
 C            0.32888190       -0.97776246        3.62415112
 C            1.01049653       -1.84093141        2.68769292
 C           -0.99557749       -0.51176627        3.29261847
 C            0.36560221        1.36585678        3.56822546
 C           -1.01327896        0.92552076        3.49718557
 C            0.62876028        2.14144206        2.36804154
 C            2.63097054        0.84223886        1.91639395
 C            1.71891213        1.83483204        1.54917117
 C            3.03459046       -1.39998301        1.32513303
 C            3.20624293       -0.01605097        0.88998446
 C            2.57466206       -2.32203632        0.40062523
 C            0.37472978       -2.22254140        1.50511350
 C            1.17405442       -2.73083583        0.47745088
 C           -1.64363064       -1.01148873        2.16863684
 C           -0.91227571       -1.73766185        1.20681921
 C           -2.77438030       -0.30875718        1.76601212
 C           -1.68874679        1.73905326        2.50144999
 C           -0.65840402        2.44925681        1.75538845
 C           -2.71960561        1.14634456        1.79223835
 C           -0.74083239        2.53858329        0.36451655
 C            1.69929655        2.27013447        0.22885907
 C            0.44146965        2.71249857       -0.35357172
 C            3.02499967        0.30549792       -0.45692267
 C            2.42294599        1.52116575       -0.78835250
 C            2.88270231       -2.08119515       -0.99175668
 C            3.11388144       -0.71068876       -1.41014186
 C            0.65635807       -2.78627418       -0.87768157
 C            1.77911567       -2.59581041       -1.77879648
 C           -1.42231502       -1.88608072       -0.09617780
 C           -0.55997118       -2.17409459       -1.15652181
 C           -3.45116721       -0.69414951        0.54959367
 C           -2.74300060       -1.54729104       -0.37428082
 C           -2.96102354        1.57856225        0.43276870
 C           -1.91097215        2.14100478       -0.29751435
 C           -3.77429724        0.53193018       -0.16188815
 C           -1.93802152        2.09093708       -1.69448335
 C            0.48507320        2.42950956       -1.77778895
 C            1.70252185        1.67680533       -2.04654815
 C           -0.69124387        2.11082444       -2.44204112
 C            2.47285352       -0.55265667       -2.70379889
 C            1.61427452       -1.71175427       -2.91156917
 C            1.68190331        0.63675226       -2.96581370
 C           -0.79420189       -1.62636012       -2.42882518
 C           -0.71509633        0.99734033       -3.38388065
 C            0.28776407       -1.21474150       -3.20354496
 C            0.41269558        0.19657581       -3.52127697
 C           -3.07328475       -1.07957528       -1.70520216
 C           -3.63775385        0.25813133       -1.57560746
 C           -2.82424424        1.15587498       -2.36985175
 C           -2.01671989       -1.01748743       -2.69476216
 C           -2.00070242        0.33322685       -3.23433538
