54
Modified xyz file
 C            1.10454000       -0.00058082        3.73557104
 C            2.31111666       -0.27123605        2.99069959
 C            2.23181532       -1.64301488        2.51298767
 C            0.27741190       -1.19828916        3.68752349
 C            0.85780789       -2.07938828        2.69419436
 C           -1.09478277       -0.77560782        3.52185457
 C            0.27139226        1.11063054        3.32688291
 C           -1.10527735        0.67700383        3.48108304
 C            0.60323097        1.87467953        2.20647043
 C            2.62043635        0.55812465        1.84462268
 C            1.71378416        1.52988378        1.41062512
 C            2.80412385       -1.67294141        1.17760501
 C            3.23540756       -0.31750534        0.86458678
 C            2.16590526       -2.42653095        0.20014607
 C            0.11785362       -2.45892235        1.57165757
 C            0.81433375       -2.90804254        0.44825179
 C           -1.82799469       -1.24125455        2.36456496
 C           -1.25093312       -2.15011925        1.47694191
 C           -2.07409933        1.09023803        2.47880272
 C           -2.56674555       -0.11061713        1.82254656
 C           -0.40288711        2.67953654        1.67725073
 C           -1.77639373        2.19646917        1.70285200
 C           -0.19833132        3.34546298        0.41090079
 C            1.84063869        2.02340910        0.10190233
 C            0.92743607        2.94765007       -0.40036718
 C            3.27260423        0.09989910       -0.45688213
 C            2.71092055        1.39645966       -0.79008691
 C            2.23787833       -2.00623337       -1.19061536
 C            2.88467224       -0.82107899       -1.51568874
 C            0.14474199       -3.01874653       -0.83291107
 C            0.96654844       -2.33535177       -1.82360999
 C           -1.93184177       -2.37036782        0.27991308
 C           -1.23119951       -2.88794423       -0.88318325
 C           -2.85188617       -0.10531604        0.45652619
 C           -2.85231608       -1.34454975       -0.18514798
 C           -2.26928244        2.24702693        0.34176701
 C           -1.40435266        3.16315392       -0.38309339
 C           -2.69621412        1.07831484       -0.28791521
 C            0.45337866        2.81609949       -1.77136391
 C           -1.00198620        2.82445405       -1.73726255
 C            2.37342811        1.36462245       -2.20254818
 C            2.38366016       -0.02806076       -2.62273927
 C            1.11984546        1.95700792       -2.63750510
 C            0.37565807       -1.45425809       -2.73424861
 C            1.07588262       -0.33099367       -3.17561502
 C            0.37331100        0.93220681       -3.35301412
 C           -1.83349987       -2.29584863       -2.06449456
 C           -2.91650690       -1.42821587       -1.62875037
 C           -0.99513457       -1.53304929       -2.97241535
 C           -2.69188223        1.04814617       -1.68543393
 C           -1.71203644        1.84028096       -2.41477889
 C           -1.01640392        0.94415579       -3.32698350
 C           -2.84315149       -0.20608648       -2.39452734
 C           -1.72462486       -0.32476452       -3.31754848
