54
Modified xyz file
 C            1.58040289        0.11837275        3.82345084
 C            0.76029305       -1.06677575        3.65235232
 C            1.33288629       -1.86874376        2.58548130
 C            2.61511793        0.09211088        2.80623826
 C            2.45371171       -1.12360340        2.02718603
 C            2.58990923        1.36530734        2.11417594
 C            0.74055475        1.27314546        3.56073338
 C            1.41834498        2.09978761        2.57878988
 C           -0.61761905       -0.63887378        3.51878048
 C           -0.59903540        0.79287498        3.25969567
 C           -1.46689247       -1.43458780        2.76984498
 C            0.47063276       -2.54339555        1.72276755
 C           -0.89892808       -2.53473268        2.00232068
 C            0.91746500       -2.83567634        0.43335741
 C            2.61110798       -1.07247951        0.64373554
 C            2.01760881       -2.06611995       -0.12778626
 C            2.91402272        1.38132922        0.76397972
 C            3.01205360        0.11999986        0.03797615
 C            2.27636844        2.34557083       -0.11690165
 C            0.64096714        2.79493090        1.66104558
 C            1.15076378        3.03436837        0.32082117
 C           -1.26422201        1.30251658        2.14243240
 C           -0.77063218        2.45996288        1.53575162
 C           -2.43891926       -0.79378362        1.90674070
 C           -2.21707460        0.51576252        1.48350905
 C           -1.85890777       -2.85788288        0.95984461
 C           -2.85415078       -1.79515072        0.93926000
 C           -0.02682712       -3.11626111       -0.64074323
 C           -1.39265609       -3.05527243       -0.39780768
 C            1.72832841       -1.82592539       -1.53375163
 C            0.51254276       -2.55516306       -1.86947685
 C            2.66493046        0.38420475       -1.35141269
 C            2.30209011        1.79154250       -1.46017829
 C            1.96712948       -0.57012665       -2.08976778
 C            1.33115328        2.17218740       -2.37722542
 C            0.00435018        3.17964521       -0.56425153
 C           -1.18715553        2.81564060        0.19028609
 C            0.11502302        2.81798291       -1.90329601
 C           -2.75943250        0.93869121        0.26806107
 C           -2.19934684        2.08957123       -0.41924560
 C           -3.05713723       -1.39681542       -0.44106331
 C           -2.24769123       -2.27165913       -1.27684007
 C           -3.13785804       -0.04253580       -0.74098104
 C           -0.35079079       -2.04045400       -2.82840754
 C           -1.74437318       -1.79797205       -2.48414575
 C            1.26626980       -0.17491388       -3.22898011
 C            0.95556870        1.23153529       -3.41665395
 C            0.10032949       -0.93232490       -3.65006885
 C           -1.01220320        2.19264338       -2.57715845
 C           -2.11364337        1.77137829       -1.83682498
 C           -2.67071798        0.43770657       -2.03180742
 C           -2.07813695       -0.45208784       -2.92393827
 C           -0.47888506        1.34326594       -3.62737874
 C           -1.00669003        0.00128189       -3.79252534
