54
Modified xyz file
 C            1.62563773       -0.20994371        4.28694279
 C            0.72353725       -1.33121323        4.48622160
 C            1.20994111       -2.43859415        3.68334142
 C            2.58748032       -0.58645316        3.26530520
 C            2.33898697       -1.96175765        2.90116724
 C            2.52913574        0.41356156        2.21681512
 C            0.84735157        0.89792476        3.75983120
 C            1.52331605        1.39612911        2.57452412
 C           -0.57778075       -0.94851421        3.96548774
 C           -0.52707871        0.46015110        3.61280894
 C            0.15959555       -2.80384831        2.74757232
 C           -0.95319969       -1.89571276        2.92758351
 C            2.06068427       -2.25442197        1.50851197
 C            0.75417086       -2.87706208        1.43131070
 C            2.58863201        0.02519889        0.88400199
 C            2.36959947       -1.31710820        0.52482064
 C            2.28575471        0.99989922       -0.06035915
 C            0.74128559        1.91911777        1.54491803
 C            1.26513262        1.91471850        0.24593444
 C           -1.20320435        0.86313830        2.46919221
 C           -0.64584520        1.88674747        1.70082963
 C           -1.57708133       -1.39356290        1.78902887
 C           -2.00967916       -0.07279058        1.82196007
 C           -0.02563995       -2.54167848        0.33322103
 C           -1.28371190       -1.95790497        0.54146407
 C            1.87034432       -1.56925332       -0.75720243
 C            0.64461997       -2.24341711       -0.84953914
 C            2.53067956        0.67168371       -1.38368613
 C            2.25538480       -0.69515079       -1.77080503
 C            2.04682169        1.54531243       -2.42733863
 C            0.51637045        2.50373893       -0.78351647
 C            0.98795692        2.47103683       -2.09495794
 C           -1.43859059        2.44170751        0.70541754
 C           -0.81993493        2.82893129       -0.55164824
 C           -2.81113973        0.37298845        0.78244180
 C           -2.68114330        1.76257014        0.38529563
 C           -2.00204507       -1.51246414       -0.57646496
 C           -2.86872310       -0.42338359       -0.43376222
 C           -0.12325811       -2.15150944       -2.00251950
 C           -1.53496856       -1.85637300       -1.84560455
 C            1.52650149       -0.66050174       -3.02609741
 C            1.57953134        0.70874554       -3.51979498
 C            0.36387238       -1.40967769       -3.15067070
 C            0.03697506        2.44631353       -3.19554429
 C            0.38541998        1.33039468       -4.06314710
 C           -1.80882385        2.63737620       -1.60648911
 C           -2.88772594        1.84363283       -1.04762735
 C           -3.09710983        0.49534608       -1.54521296
 C           -1.38039555        2.35894623       -2.89747606
 C           -1.96119464       -1.09652019       -3.00891913
 C           -0.79413755       -0.86810400       -3.84755463
 C           -0.80473238        0.52474999       -4.25952993
 C           -2.63029149        0.17424738       -2.81260847
 C           -1.90728412        1.18261293       -3.57787327
