54
Modified xyz file
 C            1.49928125        0.10286239        3.91891516
 C            0.67439899       -1.09165321        3.96171027
 C            1.38232594       -2.13735702        3.24957517
 C            2.57544253       -0.13472897        2.97079274
 C            2.54967661       -1.53524118        2.62154847
 C            2.45627622        0.84459580        1.90413733
 C            0.68534174        1.18178676        3.39244031
 C            1.38756507        1.75992175        2.26246245
 C           -0.66477706       -0.73150561        3.52330983
 C           -0.65486518        0.67676763        3.16050704
 C           -1.38259083       -1.62065056        2.73554725
 C            0.66719470       -2.89288142        2.23500181
 C           -0.71484018       -2.78552063        2.16085130
 C            2.52298461       -1.88558331        1.21868844
 C            1.45116394       -2.84390780        1.00779056
 C            2.56088773        0.44822977        0.56815872
 C            2.73259679       -0.91279826        0.24694716
 C            2.10021020        1.34152524       -0.41033252
 C            0.62493784        2.28675217        1.22991086
 C            1.19810838        2.34604201       -0.03867274
 C           -1.30667245        1.10256517        2.00440827
 C           -0.76589339        2.19039916        1.32211925
 C           -2.28113808       -1.09198585        1.72527914
 C           -2.14960376        0.22944251        1.30577321
 C           -1.35885162       -3.07629355        0.89662632
 C           -2.43754125       -2.11769272        0.72064522
 C            0.81993658       -2.87266500       -0.24043435
 C           -0.55906193       -3.07104165       -0.31751018
 C            2.53639225       -1.32600760       -1.06427125
 C            1.47871417       -2.29301117       -1.32474663
 C            2.28291222        1.03663067       -1.75685726
 C            2.51495242       -0.34122078       -2.12224485
 C            1.38346144        1.59381728       -2.75087865
 C            0.53619317        3.09262749       -1.01191856
 C            0.60316359        2.68909059       -2.40749265
 C           -1.53031731        2.77412341        0.32200169
 C           -0.83228706        3.48511630       -0.73225053
 C           -2.59365768        0.59472431        0.02633103
 C           -2.54423419        1.94989716       -0.31123120
 C           -2.44083631       -1.70972965       -0.66612676
 C           -1.33176923       -2.37508938       -1.33613139
 C           -2.69183741       -0.38155794       -0.98473741
 C            0.71265904       -1.80773865       -2.46345191
 C            1.47862893       -0.72849156       -3.06537422
 C            0.78755184        0.47573051       -3.47742088
 C           -0.67579585       -1.70616948       -2.36957693
 C           -2.46267860       -0.03065102       -2.31095942
 C           -0.58931984        0.41926445       -3.64495427
 C           -1.34122850       -0.64826031       -2.99837281
 C           -0.72880254        2.81930658       -2.97693767
 C           -1.60803686        3.35059113       -1.95039402
 C           -2.64564092        2.36347858       -1.70036255
 C           -1.36673237        1.64173789       -3.53207504
 C           -2.54394782        1.35240757       -2.72576233
