54
Modified xyz file
 C            1.52129153        0.04131328        3.95558772
 C            0.71228941       -1.14705753        3.74902459
 C            1.46644926       -2.04113117        2.90091855
 C            2.62442290       -0.00944510        3.00998549
 C            2.62465079       -1.31645443        2.39747220
 C            2.51939201        1.14551633        2.14586553
 C            0.70307091        1.19483005        3.62263011
 C            1.36985904        1.93155418        2.56591713
 C           -0.60440912       -0.72153213        3.30470299
 C           -0.64628121        0.73164470        3.38625370
 C           -1.21381040       -1.35897696        2.21899207
 C            0.79428320       -2.61996731        1.75946101
 C           -0.57685119       -2.45166584        1.59999398
 C            2.60066826       -1.40205272        0.94616921
 C            1.63991894       -2.42645196        0.59431862
 C            2.75040471        1.01877801        0.78089302
 C            2.64437269       -0.24657160        0.17113756
 C            2.44816658        2.14376680        0.02683424
 C            0.60605387        2.55848952        1.57822675
 C            1.24325186        2.87996120        0.37831270
 C           -1.41756757        1.42284910        2.46666214
 C           -0.78554962        2.40376023        1.58600563
 C           -2.27062754       -0.70288261        1.57157251
 C           -2.37600101        0.68413494        1.66813436
 C           -2.98202767       -1.35338223        0.56836229
 C           -1.10394660       -2.95951535        0.41988136
 C           -2.43679734       -2.57241631        0.01631343
 C            1.02263139       -2.37571333       -0.65288131
 C           -0.25291053       -2.93841642       -0.76080088
 C            2.25091297       -0.34134693       -1.16909212
 C            1.42309046       -1.40415176       -1.57907966
 C            2.51509833        2.06186614       -1.41508897
 C            2.48323183        0.74718131       -2.01002279
 C            0.46159453        3.00907155       -0.84048826
 C            1.37574264        2.79426455       -1.94403384
 C           -1.52314273        2.39688876        0.32608332
 C           -2.62812246        1.46641840        0.46968943
 C           -0.82516319        2.47599560       -0.87623226
 C           -3.51165496       -0.56943377       -0.53704027
 C           -3.12505186        0.82657738       -0.65251238
 C           -2.45201032       -2.46053516       -1.43371193
 C           -1.09090667       -2.64498201       -1.91281100
 C           -3.15654029       -1.24049796       -1.77618241
 C            0.78046176       -1.36679059       -2.81924572
 C           -0.59619265       -1.81586788       -2.91177168
 C            1.74105032        0.88794191       -3.24503223
 C            0.90617668        2.07320886       -3.10337314
 C            0.88608936       -0.19691259       -3.66576876
 C           -1.28651727        1.77942513       -2.00758839
 C           -2.44142275        0.99610631       -1.92373684
 C           -2.49585668       -0.27585211       -2.63456301
 C           -1.38881326       -0.67837735       -3.37154255
 C           -0.46983881        1.62443669       -3.13160283
 C           -0.45661248        0.34240018       -3.81119841
