54
Modified xyz file
 C            1.48924886       -0.21477502        4.12003229
 C            0.62518281       -1.38221162        4.12988382
 C            1.11475698       -2.30944594        3.12577679
 C            2.52529461       -0.43747537        3.12953490
 C            2.25939206       -1.70323129        2.46661235
 C            2.61023458        0.75616951        2.31184528
 C            0.70366092        0.92066177        3.66813355
 C            1.41046703        1.54340162        2.56059691
 C           -0.69882318       -0.95896429        3.71205615
 C           -0.65488442        0.46636214        3.44009525
 C           -0.01502375       -2.71371495        2.31147416
 C           -1.13477449       -1.84216262        2.64187376
 C            0.21853448       -3.00938272        0.97833156
 C            2.34725472       -1.75971319        1.07464402
 C            1.47885051       -2.59654001        0.37223547
 C            3.02914415        0.60780963        1.00271170
 C            2.98991327       -0.72065062        0.40097869
 C            2.50962471        1.52155492        0.00778063
 C            0.66311448        2.00891296        1.47588487
 C            1.27291709        2.12810490        0.22013851
 C           -1.31386384        0.92458788        2.30818899
 C           -0.72866531        1.94228450        1.55391446
 C           -1.89231646       -1.29447900        1.60661785
 C           -2.20893312        0.06570284        1.67519594
 C           -0.83083181       -2.74715086        0.01055832
 C           -1.90253067       -1.93452754        0.36213143
 C            1.22887153       -2.37090332       -1.04489607
 C           -0.19551815       -2.55632033       -1.28188753
 C            2.78734139       -0.53656216       -1.03112455
 C            2.77635255        0.90246542       -1.27193515
 C            1.90147946       -1.36213975       -1.72711025
 C            2.11533443        1.38939500       -2.38409605
 C            0.51385338        2.52330766       -0.88871795
 C            1.01880307        2.32394736       -2.17816163
 C           -1.48408929        2.52012359        0.54210708
 C           -0.83933048        2.82572292       -0.72265919
 C           -3.07284897        0.60902182        0.73336257
 C           -2.78868358        1.94884458        0.24923303
 C           -2.68663636       -1.41228156       -0.66105805
 C           -3.44518669       -0.20290858       -0.40762885
 C           -0.82800821       -1.77688983       -2.24685657
 C           -2.12733210       -1.31638898       -2.00423989
 C            1.36870354       -0.91547557       -2.93532731
 C            1.67878042        0.43181941       -3.37785599
 C           -0.04040737       -1.15782035       -3.21703351
 C            0.09263433        2.15189644       -3.28525080
 C            0.50585419        0.97842855       -4.03461392
 C           -0.55836828       -0.00269824       -3.92936161
 C           -1.78939345        2.53611069       -1.79217673
 C           -2.97807142        1.96092792       -1.19034314
 C           -3.38546663        0.63055957       -1.59702048
 C           -2.59004205       -0.06363443       -2.59330249
 C           -1.31884955        2.01197613       -2.98980597
 C           -1.72671993        0.66834839       -3.39946665
