54
Modified xyz file
 C            1.16981247       -0.06238515        3.92587024
 C            2.46880129       -0.39928970        3.38368963
 C            2.29606694       -1.59666006        2.56496639
 C            0.33014198       -1.22903757        3.74556313
 C            0.90170279       -1.98254994        2.64499755
 C           -1.02433005       -0.74144096        3.60647688
 C            0.44437760        1.05702406        3.34487968
 C           -0.95337322        0.70361813        3.40996883
 C            0.95081413        1.67314756        2.19969734
 C            3.12826839        0.59021183        2.55913843
 C            2.33805705        1.69275050        2.03571326
 C            2.87037376       -1.32221904        1.26349557
 C            3.65847799       -0.11205882        1.40739637
 C            2.08664957       -1.47856590        0.12105838
 C            0.15978089       -2.12353867        1.47232525
 C            0.79191929       -2.01399904        0.22329803
 C           -1.82911073       -1.25861221        2.52028403
 C           -1.23607887       -2.06726693        1.54958130
 C           -1.80650214        1.02138016        2.28555535
 C           -2.64220151       -0.14440816        2.07679523
 C            0.10391740        1.95585809        1.10546974
 C           -1.27291009        1.65794933        1.16881659
 C            0.64504696        2.49494267       -0.07736964
 C            2.90028938        2.00228705        0.74237143
 C            3.66109713        0.83501860        0.31225746
 C            2.00231776        2.35051234       -0.33437865
 C            2.47300195       -0.82092827       -1.05219070
 C            3.09647801        0.41823697       -0.95485097
 C            2.39939172        1.56927852       -1.49328119
 C            1.76891967       -1.06873663       -2.21967264
 C            0.06406924       -2.27120788       -0.94281146
 C            0.62860316       -1.96041844       -2.17644259
 C           -1.98494157       -2.34473845        0.41265804
 C           -1.30707893       -2.50961419       -0.86103298
 C           -3.29553625       -0.27239483        0.86340913
 C           -3.17653442       -1.54515210        0.17347159
 C           -2.04270921        1.66935595        0.00356511
 C           -3.09691278        0.76195573       -0.13930480
 C           -0.16753045        2.66110842       -1.19378219
 C           -1.57704955        2.34808139       -1.11081832
 C            1.45505931        1.35365966       -2.49251782
 C            1.38761794        0.06938249       -3.04325924
 C            0.31517627        2.16107660       -2.47388771
 C           -0.23297751       -1.60522849       -3.29377265
 C            0.24301846       -0.34169333       -3.83894897
 C           -2.19978050       -2.01497062       -1.90491816
 C           -3.27142617       -1.28778485       -1.25095767
 C           -3.35457783        0.15073939       -1.43613504
 C           -1.66090027       -1.48923367       -3.07140363
 C           -2.01774746        1.93473710       -2.43535062
 C           -0.84313620        1.83054976       -3.28654896
 C           -0.89045697        0.55115497       -3.96470448
 C           -2.78352776        0.70862729       -2.57207435
 C           -2.07191803       -0.15851065       -3.50235454
