54
Modified xyz file
 C            1.08159222        0.05779536        3.75272608
 C            2.29446067       -0.26099555        3.03459533
 C            2.18643520       -1.64107653        2.59259853
 C            0.22885773       -1.12230975        3.71508636
 C            0.79365976       -2.01986361        2.72894228
 C           -1.13103253       -0.67075989        3.54019653
 C            0.27830782        1.17441588        3.29874822
 C           -1.10593948        0.78332815        3.49967032
 C            0.62116806        1.85806749        2.12998647
 C            2.64241670        0.53058634        1.87389042
 C            1.84089604        1.60158842        1.47883908
 C            2.79144344       -1.73569820        1.27841798
 C            3.14161469       -0.38271738        0.85766415
 C            2.20191657       -2.58500657        0.35724333
 C            0.07617167       -2.34691320        1.57419996
 C            0.78369578       -2.89695103        0.50796698
 C           -1.85814912       -1.10560399        2.36716892
 C           -1.19587434       -1.79723823        1.34743247
 C           -2.09923682        1.20510585        2.52594088
 C           -2.73183598       -0.00306669        2.01424308
 C           -0.37014438        2.60550159        1.49155879
 C           -1.76792256        2.22318864        1.64003542
 C           -0.17973003        3.06245709        0.12847676
 C            2.08520163        2.14332562        0.21759361
 C            1.06552274        2.92700730       -0.45880487
 C            3.02891244       -0.01443992       -0.48524343
 C            2.75333720        1.31996107       -0.78106152
 C            2.45252246       -2.34003005       -1.04602450
 C            2.81978250       -0.99764434       -1.45852325
 C            0.19020681       -2.92191459       -0.81418753
 C            1.25945244       -2.71876994       -1.77945640
 C           -1.74675203       -1.77870691        0.05659874
 C           -1.03235639       -2.29870154       -1.03279369
 C           -3.28582441        0.00435180        0.74484926
 C           -2.94004199       -1.08011898       -0.15345054
 C           -2.37852955        2.24653715        0.31989316
 C           -1.37657646        2.71698788       -0.62870914
 C           -3.24584623        1.22532764       -0.04730327
 C           -1.26678268        2.12369933       -1.88997484
 C            1.14136923        2.63167184       -1.87679390
 C            2.21756456        1.67581383       -2.08264905
 C           -0.03975134        2.12741013       -2.55373957
 C            2.05440610       -0.69385945       -2.66227009
 C            1.06290243       -1.74733072       -2.84144441
 C            1.72593371        0.62472662       -2.95290890
 C            0.36273190        0.96490633       -3.33346467
 C           -1.32220113       -1.87916658       -2.33398744
 C           -0.24031206       -1.41295709       -3.18531707
 C           -0.56000694       -0.04656492       -3.57025864
 C           -3.29273127       -0.62546520       -1.48283856
 C           -3.31149669        0.82929237       -1.44261309
 C           -2.28862522        1.30054508       -2.35977522
 C           -2.46060124       -1.02411988       -2.59382652
 C           -1.95418167        0.18439196       -3.22714304
