54
Modified xyz file
 C            1.43371949       -0.08600304        3.87907419
 C            0.62492240       -1.27410610        3.68865996
 C            1.29503165       -2.12644784        2.71874059
 C            2.55527499       -0.16869411        2.96213825
 C            2.37991361       -1.35278260        2.13837962
 C            2.66294812        1.11143740        2.29525467
 C            0.63200237        1.05799981        3.47936249
 C            1.40602274        1.82102300        2.52095318
 C           -0.73401113       -0.84296066        3.40904080
 C           -0.67122811        0.57070044        3.07246144
 C           -1.53338181       -1.67433425        2.63958374
 C            0.51038995       -2.91219846        1.88949212
 C           -0.93239867       -2.86846746        2.06443147
 C            0.77342936       -2.91464775        0.45937523
 C            2.48352712       -1.22322273        0.75147988
 C            1.69669611       -2.02517035       -0.08630409
 C            3.19953416        1.12511450        1.01644273
 C            3.14526185       -0.10466472        0.23281068
 C            2.81439096        2.21059375        0.13692695
 C            0.75256458        2.39266509        1.43002243
 C            1.53688953        2.85378475        0.37504633
 C           -1.19635931        1.00860374        1.85882682
 C           -0.59650415        2.08704167        1.19742133
 C           -2.37514203       -1.08666931        1.61087814
 C           -2.15427987        0.22925873        1.19978261
 C           -1.54611436       -3.09312750        0.76887312
 C           -0.49173173       -3.13846109       -0.22888223
 C           -2.59979532       -2.11152131        0.60548247
 C           -0.71791390       -2.52805684       -1.46146566
 C            1.61948503       -1.75185831       -1.45022004
 C            0.37060720       -1.99965626       -2.15750344
 C            2.97555226        0.26544058       -1.16341627
 C            2.80114627        1.70292368       -1.22367233
 C            2.20059675       -0.53378340       -1.98643674
 C            0.92966927        3.08977210       -0.91972517
 C            1.62253784        2.24033918       -1.88070054
 C           -1.24317409        2.64328648        0.09614905
 C           -0.44961025        3.18897573       -0.99651796
 C           -2.66603641        0.64951281       -0.03083640
 C           -2.36967608        1.93394703       -0.48608008
 C           -2.90268243       -1.70278316       -0.68123082
 C           -2.01276104       -2.09944259       -1.76449980
 C           -3.19948422       -0.30215560       -0.90564467
 C           -2.23309930       -1.15912542       -2.85191066
 C           -3.10499694       -0.11035579       -2.34267859
 C            0.18630804       -0.92156497       -3.12213699
 C            1.21629885        0.07714248       -2.87243097
 C            0.87328519        1.42613061       -2.72934213
 C           -1.09279639       -0.51816956       -3.47655566
 C           -1.08898478        2.80208304       -2.24002220
 C           -2.37904371        2.22740445       -1.91104106
 C           -2.62529523        1.15485878       -2.85353572
 C           -0.39787148        1.85974546       -3.10282225
 C           -1.38363297        0.90064589       -3.57147783
