54
Modified xyz file
 C            1.54699452        0.07061709        3.75855201
 C            0.71786431       -1.10279220        3.55693497
 C            1.33866841       -1.90989220        2.52545064
 C            2.53682305        0.09941057        2.69436447
 C            2.36525942       -1.09125717        1.89560499
 C            2.43379892        1.38003007        2.03672853
 C            0.70145759        1.23751611        3.59049058
 C            1.40813688        2.15583194        2.72621498
 C           -0.64472196       -0.66004783        3.34545044
 C           -0.60899405        0.78377013        3.16288332
 C           -1.44239650       -1.41574513        2.50570282
 C            0.52852574       -2.68103652        1.69850096
 C           -0.86319777       -2.56859533        1.82475456
 C            1.07073612       -3.06018608        0.47426902
 C            2.37528481       -0.99620964        0.50543518
 C            1.97526569       -2.13404301       -0.19225349
 C            2.48727375        1.44102695        0.64472474
 C            2.27111513        0.26739498       -0.10939100
 C            2.22163926        2.68574602        0.07900969
 C            0.64755408        3.02331581        1.95987079
 C            1.26188638        3.53947043        0.75450995
 C           -1.17483452        1.36069779        2.02067672
 C           -0.70756184        2.60714911        1.60008580
 C           -2.26564037       -0.72895547        1.53095020
 C           -1.92419532        0.56707853        1.14320150
 C           -1.73159977       -2.85391887        0.68855371
 C           -2.63109411       -1.71239844        0.52966588
 C            0.22262593       -3.66248351       -0.53607427
 C           -1.21346335       -3.50313499       -0.42699662
 C            1.53437637       -2.01771156       -1.56655006
 C            0.63178889       -3.12529279       -1.82303955
 C            1.83815238        0.35221028       -1.44692745
 C            1.24384237       -0.75393157       -2.06218078
 C            1.96507546        2.79379128       -1.33860310
 C            1.80249529        1.57849860       -2.10196173
 C            0.19956041        3.81450732       -0.18836263
 C           -0.95680684        3.03911027        0.23616301
 C            0.75067536        3.58484544       -1.50776231
 C           -2.14828192        0.98193262       -0.17938532
 C           -1.56067848        2.15808944       -0.65804104
 C           -2.99277822       -1.27468385       -0.73468279
 C           -2.78111405        0.12192011       -1.08428206
 C           -1.71389080       -3.17347214       -1.74936689
 C           -0.56450472       -2.87906125       -2.59488784
 C           -2.66211439       -2.08318388       -1.89421631
 C            0.20742390       -0.57182080       -2.99634483
 C           -2.41402174        0.17375978       -2.49235477
 C           -0.76360832       -1.55922412       -3.15564608
 C           -2.14561363       -1.18991213       -2.91377707
 C            0.72249313        1.81988220       -3.03183636
 C           -0.07536010        2.89907414       -2.47623387
 C           -1.31636721        2.29456887       -2.02731236
 C           -0.18628820        0.72591382       -3.30729747
 C           -1.51766538        1.15183078       -2.89298140
