54
Modified xyz file
C          1.31150       -0.26698        4.68113
C          0.51804       -1.39722        4.33937
C          1.17619       -2.13371        3.28167
C          2.51577       -0.28717        3.87617
C          2.41771       -1.41120        2.90181
C          2.71073        1.06383        3.39076
C          0.57529        0.93592        4.32114
C          1.47468        1.80425        3.60829
C         -0.73110       -0.93366        3.79483
C         -0.65010        0.51427        3.63677
C          0.18099       -2.47059        2.26734
C         -1.00680       -1.67634        2.59694
C          0.58349       -2.66918        0.84091
C          2.78843       -1.21426        1.41164
C          1.57222       -1.53402        0.47162
C          3.11138        1.31011        2.03991
C          3.21162        0.23216        1.05564
C          1.08621        2.42272        2.34071
C          2.26333        2.33601        1.48599
C         -1.06117        1.09809        2.31270
C         -0.22089        2.06673        1.68527
C         -1.79213       -1.08420        1.51767
C         -1.89277        0.35452        1.42417
C         -0.61341       -2.50308       -0.10003
C         -1.78251       -1.73105        0.26393
C         -0.31448       -2.54342       -1.48302
C          2.02989       -1.51153       -1.00502
C          1.05833       -2.20729       -1.97970
C          2.76948        0.82905       -0.22716
C          2.09060        2.11251        0.08299
C          2.42140       -0.02310       -1.41917
C         -0.40735        2.36078        0.29856
C          0.84618        2.64246       -0.59985
C         -2.33918        0.90766        0.19009
C         -1.61283        2.00862       -0.36991
C         -2.57444       -1.20913       -0.76905
C         -3.06304        0.09723       -0.71862
C         -1.22731       -2.18290       -2.46857
C         -2.42289       -1.55427       -2.09864
C          0.81541       -1.57252       -3.29280
C         -0.58287       -1.78843       -3.63741
C          1.41000        0.67277       -2.31013
C          0.68579        1.87968       -1.92743
C          0.91119       -0.09642       -3.38541
C         -1.74415        2.34319       -1.84248
C         -0.50155        2.14367       -2.62782
C         -3.42146        0.50390       -2.07338
C         -3.00030       -0.59455       -2.90891
C         -2.83007        1.71283       -2.64521
C         -1.10925       -0.71236       -4.34762
C         -0.16850        0.34789       -4.12368
C         -0.84691        1.48479       -3.78542
C         -2.36425       -0.16137       -4.05554
C         -2.25412        1.28433       -3.91606
