54
Modified xyz file
 C            1.61744154       -0.07957400        3.91602390
 C            0.76505227       -1.24178963        4.08362749
 C            1.21105947       -2.24754878        3.14152405
 C            2.50314579       -0.32899240        2.78921623
 C            2.24170808       -1.66148174        2.29692985
 C            2.36433854        0.77519170        1.86932738
 C            0.76772461        1.03805387        3.55304848
 C            1.37361717        1.69034587        2.40814793
 C           -0.58628124       -0.86830270        3.69790740
 C           -0.59025601        0.55153195        3.40047873
 C            0.02949133       -2.77928024        2.48831005
 C           -1.02403092       -1.78829174        2.66184053
 C            0.20427339       -3.32251636        1.22931603
 C            2.14980555       -1.88121281        0.92378794
 C            1.44503013       -3.01691613        0.53671528
 C            2.32750477        0.52389072        0.50327684
 C            2.25098342       -0.79870610        0.02445827
 C            1.90795555        1.56652780       -0.31886541
 C            0.53261983        2.31524885        1.49576449
 C            1.02111923        2.51846026        0.20791713
 C           -1.29994281        0.99670160        2.29229927
 C           -0.84599918        2.14990347        1.65414496
 C           -1.66608464       -1.26441212        1.53730133
 C           -2.04773228        0.07856929        1.54855343
 C           -0.83450088       -3.11802741        0.24302299
 C           -1.61034289       -1.95936614        0.32029191
 C            1.20758006       -3.26210900       -0.86512673
 C           -0.22419576       -3.48962884       -1.01711742
 C            2.08085345       -1.01896665       -1.35794449
 C            1.58238858       -2.24107321       -1.81513744
 C            2.06315950        1.41471161       -1.68876498
 C            2.04073050        0.07225501       -2.23293770
 C            1.34613388        2.27696640       -2.60716278
 C            0.28921786        3.35643327       -0.63007359
 C            0.43005111        3.25732510       -2.06787069
 C           -1.70037868        2.76862699        0.74759136
 C           -1.12298565        3.52996332       -0.34802793
 C           -2.82171857        0.55673412        0.49908393
 C           -2.79351129        1.98175552        0.20681156
 C           -2.11264690       -1.36662466       -0.85080423
 C           -2.79066052       -0.15469654       -0.76606339
 C           -0.64586690       -2.80689016       -2.21689508
 C            0.54301859       -2.23689530       -2.82706369
 C           -1.61525033       -1.73821186       -2.10117453
 C            1.08510600        0.06828023       -3.33831256
 C            0.58784441        1.41832213       -3.49926862
 C            0.16978865       -0.96709008       -3.41348853
 C           -1.21522924       -0.69956891       -3.03712703
 C           -0.89010574        2.97425262       -2.61236400
 C           -1.85870031        3.20348145       -1.56023134
 C           -2.79161738        2.14510364       -1.23722427
 C           -2.60593660        0.82958180       -1.82526007
 C           -0.81963922        1.66736788       -3.24458044
 C           -1.62512932        0.61258703       -2.79783178
