54
Modified xyz file
 C            1.40175867       -0.17827214        4.14220174
 C            0.54959742       -1.34840470        4.04584193
 C            1.12917186       -2.24166289        3.05733404
 C            2.49203613       -0.34057632        3.19459148
 C            2.34294883       -1.62988438        2.54936235
 C            2.53686602        0.85132297        2.36693333
 C            0.62323111        0.97155652        3.71516503
 C            1.41935535        1.70420410        2.75480601
 C           -0.73921093       -0.91616506        3.53373312
 C           -0.67998999        0.50963891        3.28667776
 C            0.08100877       -2.59339240        2.11387159
 C           -1.07848516       -1.77771088        2.42281356
 C            0.40442524       -2.76929062        0.76936596
 C            2.60541988       -1.72511048        1.19102051
 C            1.71327525       -2.50846842        0.34893847
 C            2.84728194        0.73960140        1.00921821
 C            2.96935876       -0.53016855        0.43451350
 C            2.53920047        1.82418551        0.18742703
 C            0.76762605        2.40025910        1.74549781
 C            1.56224105        2.78104784        0.67187828
 C           -1.17292509        0.99147147        2.07770714
 C           -0.59362295        2.13315531        1.52004442
 C           -1.76935119       -1.23887656        1.34997750
 C           -1.93857674        0.14905502        1.26163391
 C           -0.62651953       -2.68955181       -0.17262882
 C           -1.78437347       -1.97527804        0.17531000
 C           -0.28665445       -2.85666985       -1.51521578
 C            1.95185220       -2.07373902       -1.01868214
 C            2.53721881       -0.74485722       -0.94253914
 C            0.97838857       -2.31822519       -1.97008470
 C            2.23840872        1.60084277       -1.21841293
 C            1.96580775        0.31058622       -1.65066220
 C            0.95627918        3.41758310       -0.47628382
 C            1.39776374        2.69150472       -1.65948767
 C           -1.25156245        2.74511507        0.45592586
 C           -0.48589644        3.50225145       -0.51938698
 C           -2.55717526        0.67888440        0.12071176
 C           -2.26639384        1.99253691       -0.26855075
 C           -2.70215619       -1.59192817       -0.79257137
 C           -3.11828572       -0.20005874       -0.81171745
 C           -1.25872412       -2.57597878       -2.55389835
 C           -2.54092480       -2.04188330       -2.16049909
 C            0.64582346       -1.26187925       -2.90601828
 C            0.91553452        0.06325903       -2.55056973
 C           -0.64313407       -1.62229543       -3.46865230
 C            0.22782667        2.38696831       -2.45212558
 C           -0.90012789        3.06596952       -1.83771162
 C           -2.13501450        2.32225113       -1.68725361
 C            0.02913686        1.09311583       -2.92746630
 C           -3.20058239        0.20943071       -2.20143029
 C           -2.83498291       -0.92294497       -3.03602804
 C           -1.60414143       -0.57617705       -3.72863816
 C           -2.39579308        1.33315747       -2.62154816
 C           -1.26423870        0.78049540       -3.35443904
