54
Modified xyz file
 C            1.48595489        0.00795641        3.98410376
 C            0.63446020       -1.14607844        3.74893521
 C            1.38909735       -2.08352696        2.95354476
 C            2.60990838       -0.08653668        3.06802591
 C            2.61816139       -1.42280211        2.52681647
 C            2.52523758        1.02529438        2.14543598
 C            0.72328746        1.19277860        3.63079183
 C            1.41994344        1.87744853        2.55867501
 C           -0.63046600       -0.66154430        3.23229017
 C           -0.64334844        0.78303099        3.39702401
 C           -1.17615092       -1.20992098        2.06819437
 C            0.77483245       -2.63549134        1.76279115
 C           -0.49743326       -2.21991182        1.36068997
 C            2.70924192       -1.58868697        1.08773436
 C            1.82467472       -2.69075155        0.76736590
 C            2.73191507        0.82960349        0.78160313
 C            2.71927833       -0.47348960        0.24212661
 C            2.42038335        1.90977265       -0.03439605
 C            0.67509569        2.52133045        1.56926444
 C            1.29090227        2.74768013        0.33939701
 C           -1.39531773        1.53016611        2.50673442
 C           -0.72207081        2.49538258        1.64007053
 C           -2.22678891       -0.52555563        1.45331811
 C           -2.37218929        0.84250141        1.68487738
 C           -2.85251166       -1.09151169        0.34982886
 C           -0.90722283       -2.54886315        0.06286761
 C           -2.14707542       -2.11131088       -0.40009632
 C            1.45193906       -2.86132995       -0.55088184
 C            0.03999502       -3.02204392       -0.84907401
 C            2.42901516       -0.67968095       -1.11739583
 C            1.96718548       -1.92851160       -1.53598889
 C            2.40056294        1.74107148       -1.46846318
 C            2.34159614        0.39877688       -1.99600961
 C            0.48651889        2.95744652       -0.85390731
 C            1.25862639        2.47715185       -1.98762832
 C           -1.51831191        2.60873727        0.42212236
 C           -2.67025999        1.72819927        0.57435125
 C           -0.88364108        2.71995909       -0.81354938
 C           -3.53582465       -0.22631365       -0.60042005
 C           -3.28823058        1.20454853       -0.55141640
 C           -2.34246534       -1.83816666       -1.81993160
 C           -3.22539902       -0.69312990       -1.94077977
 C           -0.11415774       -2.72436894       -2.26212654
 C            1.08286118       -2.01320853       -2.68718892
 C           -1.26879344       -1.96341437       -2.69281070
 C            1.34009714        0.39087020       -3.05491218
 C            0.60384312        1.64472422       -2.97984682
 C            0.66854516       -0.79010806       -3.34909014
 C           -0.78530013       -0.79718216       -3.42521096
 C           -1.53859965        2.29302094       -1.96973831
 C           -2.82186833        1.62020348       -1.86094962
 C           -2.78860267        0.44827615       -2.72260342
 C           -0.78483193        1.63261410       -3.02670440
 C           -1.48629838        0.40489507       -3.36785999
