54
Modified xyz file
C          1.01762        0.03656        3.71178
C          2.21127       -0.23133        3.14180
C          2.15882       -1.43509        2.62350
C          0.23738       -1.00387        3.54099
C          0.86603       -1.87348        2.69419
C         -1.04131       -0.64364        3.43865
C          0.28106        1.18744        3.49960
C         -1.14010        0.78128        3.64416
C          0.70380        1.91515        2.32670
C          2.87263        0.60584        2.26212
C          2.01329        1.62127        1.70142
C          2.93065       -1.53504        1.54203
C          3.64024       -0.29153        1.36154
C          2.41761       -2.03332        0.37431
C          0.19549       -2.27859        1.48033
C          1.01033       -2.40642        0.27364
C         -1.79899       -1.08702        2.38775
C         -1.21080       -1.90794        1.33424
C         -2.15120        1.23348        2.69727
C         -2.76307       -0.01293        2.11416
C         -0.34304        2.37562        1.46112
C         -1.66069        2.15117        1.63725
C         -0.14003        2.58875        0.11160
C          2.11926        1.82302        0.28536
C          1.07134        2.31689       -0.46683
C          3.66240       -0.07122       -0.07873
C          3.13455       -1.33649       -0.70197
C          2.91583        1.12409       -0.54805
C          2.51125       -1.31347       -2.01811
C          0.39605       -2.38372       -1.02347
C          1.21504       -1.98890       -2.16502
C         -1.82509       -1.88525        0.03713
C         -1.05191       -2.23251       -1.15367
C         -3.38636        0.01009        0.79801
C         -3.00156       -1.04260       -0.15158
C         -2.28963        2.17440        0.30920
C         -1.31535        2.41154       -0.59200
C         -3.43276        1.28082       -0.00886
C         -1.32766        1.99019       -1.96293
C          1.14695        1.85894       -1.76775
C          2.28690        1.14732       -1.87610
C          2.38084       -0.02388       -2.78486
C         -0.01818        1.69631       -2.58821
C          0.64373       -1.45056       -3.28700
C          1.24984       -0.20323       -3.68602
C          0.07898        0.70904       -3.63693
C         -1.56036       -1.78385       -2.42936
C         -0.68050       -1.33020       -3.37197
C         -1.03185       -0.11152       -3.70635
C         -3.32822       -0.55916       -1.39038
C         -3.53050        0.86959       -1.40340
C         -2.51259        1.29064       -2.39945
C         -2.60193       -0.89899       -2.45448
C         -2.22550        0.15636       -3.13638

