80

 C     -2.1324631632     2.7845549153     -1.6338137385
C     -3.3336259953     2.4552743479     -0.9630893782
C     -4.0756699159     1.2715930089     -1.2920806538
C     -1.6582889039     1.8967335031     -2.7019587887
C     -2.4241253604     0.7659415065     -3.0228097851
C     -3.6414764714     0.4525426151     -2.3305604229
C     2.0080210355     2.7029640026     -2.4722762068
C     0.5931364698     2.8669299856     -2.5526578238
C     -0.2442057747     1.8625866119     -3.0729862003
C     2.6065322655     1.5365000969     -2.9445065898
C     1.7745130165     0.4744650398     -3.4180074455
C     0.3774571438     0.6036613133     -3.4907843142
C     -4.589913436     -0.7077140724     0.0773356087
C     -4.1892376937     -1.5572516073     -1.0243874067
C     -4.5920292109     0.6782408132     -0.0677582656
C     -3.7498749256     -0.9894260431     -2.2205843098
C     -2.6233578132     -1.5613506304     -2.9269868732
C     -3.4701050342     -2.6933688145     -0.4705428509
C     -2.4573104994     -3.2898234116     -1.1921796405
C     -2.0223353524     -2.7267138625     -2.4552390487
C     -0.3972262802     -0.6297975863     -3.4872867476
C     -1.7938728427     -0.5004229047     -3.4073750558
C     -0.607895594     -2.8908782448     -2.5427624151
C     0.2266597232     -1.8877529926     -3.069873538
C     -3.7404758389     0.9620613272     2.2256623643
C     -3.6279020777     -0.4796320991     2.335049041
C     -4.1876152234     1.5287814159     1.0318220145
C     -4.0655715441     -1.2997659783     1.2988914516
C     -3.3223325152     -2.4815989332     0.9659391159
C     -2.4060977402     -0.7899921332     3.0208086594
C     -1.6391626162     -1.9188693249     2.6958806528
C     -2.1168006231     -2.8078809262     1.6302596257
C     -1.134490508     -3.6013079972     0.8940134281
C     0.1823587039     -3.6621193136     1.3777276254
C     -1.2946237555     -3.7982043275     -0.5088272559
C     -2.4591428939     3.2656516657     1.1904093996
C     -2.0160482537     2.7036436416     2.4511312292
C     -3.4742778666     2.6666856036     0.4741700399
C     -2.6116437336     1.5367916398     2.9260653935
C     -1.7769693709     0.4779356458     3.4020258635
C     -0.6015723386     2.8713297969     2.5311335231
C     0.2382749094     1.8702960804     3.0537892646
C     -0.3802421281     0.6107893659     3.4745065973
C     0.6138521591     -2.8834597502     2.5345879411
C     -0.2232154609     -1.8812023755     3.0593764715
C     0.3975221487     -0.6207334762     3.4738634711
C     1.7938499787     -0.4880619308     3.3936480501
C     0.1658681594     3.6445177266     -1.3935117517
C     -1.1482271762     3.5804324911     -0.9027940758
C     -1.3013749316     3.7769251304     0.5008823461
C     -0.1762521015     3.6472898336     1.3701807833
C     1.138004402     3.5853460691     0.8796097505
C     1.2906679185     3.7789804427     -0.5245173749
C     3.466332493     2.6742299347     -0.4952369594
C     2.449706783     3.2690029287     -1.2128622334
C     2.4209306767     0.7789805252     3.0061410325
C     1.6522706418     1.9071052381     2.6826755344
C     2.1242219311     2.79362904     1.6124669301
C     3.326208524     2.465799111     0.9425018184
C     3.7510688661     -0.9749231576     2.2079800859
C     3.6390658415     0.4670187224     2.3146161318
C     4.0712123943     1.2847400756     1.2742365592
C     4.191855672     -1.5444200206     1.0131053917
C     2.4642638748     -3.2809174168     1.1849279562
C     2.0278732695     -2.7159712011     2.4466780462
C     2.6259807317     -1.548016308     2.91572102
C     3.4755613107     -2.6836169096     0.4619019058
C     -0.1744616294     -3.6657688544     -1.3840992565
C     1.1422271575     -3.6005491999     -0.9005308227
C     1.3028463739     -3.793785921     0.5027639421
C     3.6278245504     -0.4760008673     -2.3488195921
C     2.4068058737     -0.7910057896     -3.0338501572
C     1.6426967915     -1.9210420221     -2.7063000044
C     4.067543733     -1.292637721     -1.3107625107
C     3.3272659816     -2.4755482291     -0.9750702305
C     2.1225523544     -2.8063792314     -1.6386246773
C     4.5890534499     0.6898466504     0.0512905988
C     4.1825164496     1.5368212779     -1.0502569476
C     3.7367966538     0.9662163357     -2.242776371
C     4.5904041809     -0.6964438907     -0.0905889441


