80

 C     -3.8111195225     0.7503323305     2.2962359937
C     -3.0371568767     -0.2419752153     3.0189792039
C     -4.5485797238     0.3819383025     1.1734492056
C     -3.0365485451     -1.5719755088     2.5909073398
C     -1.8123715339     -2.3111484189     2.5938487246
C     -1.8135825296     0.3577227713     3.452838166
C     -0.6175612449     -0.370077106     3.5248922614
C     -0.6169227483     -1.761049916     3.0771611519
C     1.8253122358     -3.3949128707     0.7430167894
C     0.6291674587     -3.2344111894     1.4563215601
C     0.6284129463     -2.372097829     2.6360468265
C     1.8238973318     -1.7406112858     3.0067218084
C     -3.8106605738     2.4155953107     -0.0095193311
C     -3.0373039279     2.7961512914     1.1579880119
C     -4.5483063346     1.2340911323     -0.006438488
C     -3.0374879815     1.9780913106     2.2906383343
C     -1.8137629555     1.7521783476     2.9951791696
C     -1.8134230915     3.3939350851     0.7223832807
C     -0.6178337806     3.2370143378     1.4373351005
C     -0.6180185833     2.381437032     2.6218483823
C     1.8232211092     -0.3434850253     3.4562108528
C     0.62713407     0.3845853761     3.5231092614
C     0.6268699106     1.7729923056     3.0675443347
C     1.8227141116     2.3206399048     2.582398731
C     -3.8091376395     0.7374447641     -2.3056113418
C     -3.0356808637     1.9653573797     -2.3065159227
C     -4.5474710439     0.3753253093     -1.1814363214
C     -3.0363878522     2.7897437549     -1.1784896382
C     -1.8128281329     3.3899519498     -0.7452603578
C     -1.8114115603     1.7356446441     -3.0089649285
C     -0.6159331055     2.3671409324     -2.6382913003
C     -0.6166839121     3.229449742     -1.458558375
C     1.8228804838     3.1798756164     1.392536755
C     0.6272768966     3.4685963054     0.7199239961
C     0.6278987478     3.4648286951     -0.7413140986
C     1.8241305826     3.1723122036     -1.4112403132
C     -3.8085804728     -1.9649244174     -1.4191985072
C     -3.0344367718     -1.5864560803     -2.5868758768
C     -4.5471124857     -1.0075366975     -0.727810344
C     -3.0346438554     -0.2588441262     -3.0222697523
C     -1.8107375827     0.3385178519     -3.4584470804
C     -1.8102276333     -2.3256063819     -2.5846252569
C     -0.6143892073     -1.7779583042     -3.0697816709
C     -0.6146505933     -0.389544228     -3.5253418504
C     1.824855651     2.3061987964     -2.5960762411
C     0.6294058775     1.7560978254     -3.079397134
C     0.6300409729     0.3651261935     -3.5271194946
C     1.8260686136     -0.3626670368     -3.4550724667
C     -3.8098796584     -1.9570422942     1.4248670558
C     -3.0353344583     -2.9506364014     0.7045207884
C     -4.5478489802     -1.0034812407     0.7275358735
C     -3.0346953267     -2.9544690435     -0.692657376
C     -1.8103966351     -3.1848360261     -1.3947614969
C     -1.8116445401     -3.1772649606     1.4090181268
C     -0.6154188735     -3.4697900612     0.7390863805
C     -0.6147938441     -3.4735504983     -0.7221542997
C     1.8262460853     -1.7571268349     -2.9974192324
C     0.6305014413     -2.3863934616     -2.6240885101
C     0.6303146515     -3.2419630384     -1.4395719727
C     1.8259086388     -3.398889251     -0.7246313083
C     3.8236061156     -0.7552821909     -2.2984746136
C     3.0499731664     -1.9830376378     -2.2928820185
C     3.0497873606     -2.80110688     -1.1602342982
C     4.5610620269     -0.3868904708     -1.1756862711
C     3.8223645155     1.9520904258     -1.4270925812
C     3.0490314581     1.5670289804     -2.5931353072
C     3.0496378136     0.2370310909     -3.021216088
C     4.5603302439     0.9985296565     -0.7297644441
C     3.8210662998     1.9599623172     1.4169724601
C     3.0471795537     2.949507333     0.6904359512
C     3.0478156991     2.9456841468     -0.7067451983
C     4.5595946012     1.0025741737     0.7255821884
C     3.8216239533     -0.7424118823     2.3033745251
C     3.0471285496     0.2538737305     3.0200351562
C     3.0469192148     1.5814909318     2.5846514779
C     4.5599535737     -0.380290267     1.1791997404
C     3.8231462673     -2.42055367     0.0072734084
C     3.0488729089     -2.7947068499     1.1762428108
C     3.04816259     -1.9703262702     2.3042748876
C     4.5607912538     -1.2390487208     0.0041950359


