80

 C     1.3211761042     -2.4968119522     2.9543278242
C     1.0538766703     -1.2986039131     3.7189276096
C     1.9757284141     -0.2278734731     3.6001914529
C     -0.3021112813     -0.9837883129     3.9885022619
C     0.2592424169     -3.2826078363     2.4148628942
C     -2.0282601158     -3.2061263708     1.5492740174
C     -1.0993952261     -2.9065673888     2.5994135449
C     -1.3708331909     -1.7775233118     3.4301763822
C     -0.7493346285     0.3825649382     4.0405599114
C     0.157559808     1.46500208     3.841285309
C     1.5333941346     1.1399395655     3.6513222337
C     -0.340391181     2.6212672136     3.1698955888
C     -2.0927408541     0.4319444675     3.5282925014
C     -3.4904005546     1.3070475119     1.7186015891
C     -2.5527599722     1.5528418437     2.7919190155
C     -1.6845031595     2.6658434437     2.659937539
C     -3.1145818995     -2.3471042642     1.2702682888
C     -3.3232823604     -1.1483503444     2.0281452874
C     -2.4702116424     -0.9083223236     3.147798699
C     -3.8673157383     -0.0201226462     1.3552129249
C     0.4969505706     3.389939448     2.2884465605
C     1.8410257315     3.0111381305     2.0433541074
C     2.366475139     1.9117632762     2.7684483553
C     2.3719808964     3.252916612     0.7198713807
C     -0.3337603216     3.9005261584     1.2235443331
C     -0.7383583717     3.85320048     -1.1941634386
C     0.1712319428     4.0490079772     -0.1039942857
C     1.5473104271     3.7673666973     -0.3252311492
C     -3.4795950532     2.0990919567     0.5310802057
C     -2.537636722     3.149878737     0.3576317696
C     -1.6728755933     3.4562822977     1.4516865602
C     -2.0621027016     3.4138452819     -0.9686960587
C     3.3208045337     2.3651591121     0.1303879514
C     3.7681349166     1.2047101468     0.8196863629
C     3.3187617144     1.0125734253     2.1613730997
C     4.082774055     0.0415093051     0.0440353616
C     3.0899049889     2.3417192288     -1.3054449428
C     2.4455313711     0.9029267619     -3.1829778311
C     3.2986115656     1.1429585541     -2.0633193951
C     3.842636891     0.0147424762     -1.3903892254
C     -0.2839271989     3.2772151939     -2.4500533077
C     1.0747260061     2.9011719629     -2.6345946223
C     2.0035780423     3.2007376115     -1.5844609822
C     1.3461624486     1.7721320925     -3.4653542803
C     3.8456820602     -1.2567144303     0.5484348678
C     3.2832593464     -1.4520544799     1.8526693709
C     3.0792689266     -0.3008655164     2.6721114217
C     2.4203239189     -2.5651695863     2.0462816075
C     3.4549041387     -2.1044773104     -0.5662725635
C     1.6481875138     -3.4616730527     -1.4868780854
C     2.5129385493     -3.155268339     -0.3928242871
C     2.0374069978     -3.419234566     0.9335022916
C     2.0680622978     -0.4373342754     -3.5634708745
C     2.5280764769     -1.5582338311     -2.8270994685
C     3.4657131972     -1.3124458712     -1.7537792368
C     1.6598139527     -2.671234235     -2.6951194804
C     0.3090580298     -3.9059142251     -1.2587340362
C     -0.1959328723     -4.0543968239     0.0687981397
C     0.7136725065     -3.8585847089     1.1589755595
C     -1.5720002303     -3.7727516171     0.2900478439
C     -0.5216434211     -3.3953209691     -2.3236340717
C     -2.3911712004     -1.9171414667     -2.8036279136
C     -1.8657262367     -3.0165113761     -2.0785418605
C     -2.3966843422     -3.2582911423     -0.7550599829
C     0.7246505096     -0.3879502196     -4.0757452729
C     -1.5580789394     -1.145309207     -3.6865150783
C     -0.182247293     -1.4703828628     -3.8764716994
C     0.3156977682     -2.6266509264     -3.2050784616
C     -1.3458448939     2.4914294879     -2.9895161887
C     -2.0004057081     0.2224858831     -3.6353866346
C     -1.0785518587     1.2932194817     -3.7541167864
C     0.2774323033     0.9783980974     -4.0236899968
C     -3.8703658559     1.2513309209     -0.5836151782
C     -3.1039528858     0.2954821152     -2.7072914402
C     -3.3079402362     1.4466702976     -1.8878546293
C     -2.4450069915     2.5597859322     -2.0814599305
C     -3.345496625     -2.3705458559     -0.1655764256
C     -3.3434544494     -1.0179514319     -2.1965620392
C     -3.7928311597     -1.2100877509     -0.8548628789
C     -4.1074643161     -0.0468979896     -0.079218005


