26
0 1
C       -2.097825   -1.381543   -0.072337 
C       -2.624893    0.003020   -0.124057 
C       -2.047660    0.650267   -1.212796 
C       -1.154957   -1.565699   -1.245234 
C       -1.125388   -0.274554   -1.966817 
C        0.031699   -2.097151   -0.769371 
C       -1.338305   -1.528868    1.114013 
C       -0.031701   -2.097159    0.769349 
C       -2.154501    0.679795    1.110100 
C       -1.364521   -0.238642    1.842984 
C       -1.206408    1.818868   -0.748341 
C       -1.264287    1.827961    0.683476 
C        0.076419    0.382847   -2.163330 
C        0.045481    1.723730   -1.407198 
C        1.338302   -1.528855   -1.114028 
C        1.364520   -0.238622   -1.842985 
C        1.154958   -1.565714    1.245216 
C        2.097823   -1.381543    0.072321 
C       -0.076419    0.382822    2.163334 
C       -0.045480    1.723716    1.407218 
C        1.125389   -0.274577    1.966814 
C        1.264288    1.827968   -0.683453 
C        2.154500    0.679807   -1.110094 
C        2.624892    0.003016    0.124056 
C        1.206411    1.818858    0.748360 
C        2.047661    0.650251    1.212801 
