38
0 1
C        3.137271   -0.711410   -0.822439 
C        2.626065    0.511759   -1.502346 
C        2.577451    1.549409   -0.582362 
C        3.204012   -0.398794    0.650125 
C        2.920661    0.995709    0.794910 
C        2.375900   -1.321226    1.307640 
C        2.242753   -1.759955   -1.036501 
C        1.813491   -2.280809    0.269713 
C        1.420580    0.127257   -2.247594 
C        1.179009   -1.316264   -1.971377 
C        0.340604    0.991961   -2.279764 
C        1.370166    2.355564   -0.444210 
C        0.326179    2.183657   -1.384764 
C        1.905664    1.407054    1.664028 
C        1.009339    2.374543    0.944801 
C        1.263605   -0.905614    2.129915 
C        1.040435    0.467068    2.341537 
C        0.486272   -2.512597    0.541551 
C        0.105564   -1.757296    1.788812 
C       -0.105561   -1.757304   -1.788803 
C       -0.486268   -2.512600   -0.541539 
C       -1.040435    0.467054   -2.341540 
C       -1.263603   -0.905627   -2.129913 
C       -1.009342    2.374538   -0.944812 
C       -1.905666    1.407043   -1.664035 
C       -0.326182    2.183663    1.384755 
C       -0.340604    0.991972    2.279760 
C       -1.370169    2.355565    0.444200 
C       -1.179007   -1.316256    1.971383 
C       -1.420580    0.127267    2.247594 
C       -1.813489   -2.280813   -0.269702 
C       -2.375899   -1.321235   -1.307636 
C       -2.242752   -1.759952    1.036509 
C       -2.920662    0.995704   -0.794915 
C       -2.577453    1.549411    0.582355 
C       -2.626066    0.511764    1.502345 
C       -3.204013   -0.398800   -0.650124 
C       -3.137272   -0.711407    0.822443 
