38
0 1
C       -2.607184   -1.633387   -0.736930 
C       -2.699053   -1.257002    0.711489 
C       -2.960397    0.108897    0.783324 
C       -2.566920   -0.462008   -1.513825 
C       -2.961359    0.647760   -0.655006 
C       -1.265284   -0.397485   -2.222897 
C       -1.356907   -2.371405   -0.916180 
C       -0.601231   -1.676335   -1.947606 
C       -1.537513   -1.818852    1.376064 
C       -0.769204   -2.608395    0.356359 
C       -0.825956   -0.997416    2.258703 
C       -2.125994    0.995800    1.573247 
C       -1.065300    0.453326    2.300439 
C       -2.240054    1.800021   -0.684433 
C       -1.842761    2.170148    0.736989 
C       -0.513294    0.813023   -2.264303 
C       -1.029963    1.970566   -1.523764 
C        0.929493    0.688826   -2.337688 
C        0.801490   -1.758657   -1.889924 
C        1.549190   -0.585851   -2.224889 
C        0.649929   -2.686749    0.425431 
C        1.408255   -2.394842   -0.735341 
C        0.610562   -1.202772    2.388771 
C        1.319651   -2.045177    1.564240 
C        0.272860    1.129861    2.315811 
C        1.279556    0.144814    2.401810 
C       -0.608689    2.757882    0.685659 
C       -0.159760    2.773985   -0.763220 
C        0.521095    2.259716    1.479661 
C        1.791418    1.626172   -1.602268 
C        1.249194    2.570557   -0.758758 
C        1.683642    2.258464    0.664877 
C        2.722862   -0.484791   -1.265636 
C        2.606036   -1.563527   -0.328983 
C        2.515509   -1.289466    1.030938 
C        2.426247    0.090014    1.522346 
C        2.793503    0.819900   -0.812093 
C        2.606332    1.154386    0.607585 
