38
0 1
C        3.383232    0.000117   -1.297883 
C        3.923870   -0.000010   -0.015295 
C        3.372456    1.199146    0.700180 
C        2.481093    1.194338   -1.471604 
C        2.491355    1.923083   -0.273493 
C        1.210029    0.730078   -1.991084 
C        2.481121   -1.194029   -1.471815 
C        1.210039   -0.729673   -1.991231 
C        3.372446   -1.199299    0.699988 
C        2.491375   -1.923049   -0.273876 
C        2.515066    0.736963    1.719927 
C        2.515077   -0.737254    1.719795 
C        1.200160    2.138708    0.369646 
C        1.197211    1.384043    1.614221 
C        0.000128    1.401724   -1.648966 
C        0.000143    2.165012   -0.393049 
C       -1.210057    0.729844   -1.990741 
C        0.000199   -1.401400   -1.649161 
C       -1.210041   -0.729497   -1.990842 
C        1.200227   -2.138697    0.369284 
C        1.197230   -1.384309    1.613948 
C        0.000155   -2.164878   -0.393406 
C        0.000260    0.751413    2.021344 
C        0.000266   -0.751754    2.021212 
C       -1.200165    2.138173    0.369676 
C       -1.197125    1.383850    1.613800 
C       -2.481294    1.194386   -1.471470 
C       -2.491625    1.923178   -0.273553 
C       -2.481211   -1.194206   -1.471659 
C       -3.383541    0.000072   -1.297840 
C       -1.200087   -2.138268    0.369330 
C       -1.197094   -1.384122    1.613624 
C       -2.491529   -1.923124   -0.273855 
C       -2.515105    0.737004    1.719992 
C       -3.372601    1.199358    0.700235 
C       -3.924058   -0.000050   -0.015240 
C       -2.515067   -0.737336    1.719862 
C       -3.372541   -1.199539    0.699997 
