38
0 1
C       -3.164356    0.000028    0.921263 
C       -2.427202    1.190359    1.378985 
C       -2.329431    2.077663    0.245044 
C       -3.198937    0.000016   -0.509319 
C       -2.617042    1.222071   -0.993893 
C       -2.617066   -1.222036   -0.993877 
C       -2.427210   -1.190309    1.379002 
C       -2.329471   -2.077601    0.245045 
C       -1.229934    0.755399    2.010146 
C       -1.229949   -0.755359    2.010154 
C        0.000015    1.489176    1.837102 
C       -1.153446    2.749893    0.031889 
C        0.000028    2.582187    0.899800 
C       -1.461559    1.224949   -1.801196 
C       -0.676643    2.393097   -1.373601 
C       -1.461586   -1.224940   -1.801194 
C       -0.720296    0.000006   -2.143629 
C       -1.153517   -2.749880    0.031892 
C       -0.676704   -2.393101   -1.373612 
C       -0.000018   -1.489175    1.837103 
C       -0.000026   -2.582190    0.899803 
C        1.229950    0.755361    2.010154 
C        1.229936   -0.755398    2.010146 
C        2.427207    1.190311    1.378999 
C        1.153514    2.749875    0.031892 
C        0.676702    2.393096   -1.373612 
C        2.329466    2.077600    0.245041 
C        0.720293   -0.000008   -2.143631 
C        1.461585    1.224936   -1.801195 
C        2.617062    1.222035   -0.993879 
C        0.676645   -2.393097   -1.373599 
C        1.153451   -2.749892    0.031892 
C        1.461559   -1.224948   -1.801193 
C        2.427205   -1.190352    1.378983 
C        3.164366   -0.000025    0.921266 
C        3.198937   -0.000017   -0.509317 
C        2.329434   -2.077659    0.245041 
C        2.617043   -1.222072   -0.993896 
