100 

C -2.66677 1.31412 -3.48116
C -2.31418 2.46960 -2.78294
C -.92887 2.89465 -2.82752
C -.50586 3.94604 -1.90917
C -1.35070 4.32354 -.83919
C .85667 4.19884 -1.73750
C 1.84998 3.42882 -2.44206
C 1.48580 2.27504 -3.14484
C -1.68095 .49475 -4.09406
C .11941 -1.64360 -4.11634
C .63476 -.34309 -4.00330
C -.31317 .77996 -3.98238
C .06781 2.04592 -3.41617
C 1.39194 4.58173 -.46694
C .57386 4.49094 .68037
C -.81400 4.49777 .45505
C -1.73659 3.92728 1.40411
C .15874 3.08612 2.72497
C -1.29873 3.19153 2.49144
C 2.77684 4.18055 -.43315
C 3.30507 3.67469 .74130
C 2.43165 3.45662 1.88026
C 1.07258 3.80957 1.86450
C .65987 1.99606 3.49458
C -.27859 1.13770 4.15053
C 3.96533 2.47531 -1.73168
C 3.06935 3.52229 -1.69174
C 2.42826 1.16578 -3.18066
C 3.65061 1.31629 -2.51664
C 1.96164 -.18773 -3.47632
C -1.70826 1.27344 3.95307
C -2.22770 2.19782 3.05097
C -3.46933 1.86291 2.36119
C -2.28799 -.01999 4.13402
C -3.39566 -.38479 3.39227
C -4.04143 .59231 2.57642
C -1.22885 -.95988 4.32647
C -1.24941 -2.20943 3.70064
C .01664 -2.86779 3.56629
C 2.87042 2.27277 2.54494
C 1.99471 1.48523 3.28569
C 2.28897 .06421 3.42183
C 1.26974 -.77829 4.02196
C .01202 -.19745 4.40674
C 1.26424 -2.14578 3.77853
C -3.79012 2.53907 1.10995
C -2.93550 3.56603 .67101
C -4.66593 -.13979 1.48654
C -4.93909 .48365 .30364
C -4.54008 1.86739 .11713
C -4.14398 -1.48470 1.47661
C -2.17593 -3.62054 -.89975
C -1.01649 -4.40823 -.84658
C -2.73081 -3.13497 .34883
C -3.78531 -2.13217 .29134
C -4.13775 -1.49148 -.97446
C -4.75970 -.22737 -.93364
C -2.30443 -2.51914 2.74474
C -3.38934 -1.64956 2.68427
C .22829 -3.82990 2.59338
C -.76948 -4.08421 1.56741
C -2.01953 -3.35376 1.58059
C -.30672 -4.61282 .36783
C -4.48140 .77319 -1.92735
C -4.24245 2.04130 -1.26402
C -3.19239 2.89045 -1.68023
C -2.67335 3.76055 -.70324
C -3.74841 .44241 -3.03379
C -3.44496 -1.86802 -2.19109
C -2.48819 -2.95925 -2.16306
C -3.35091 -.91973 -3.23323
C -2.18206 -.86529 -4.06856
C -1.30549 -1.90564 -4.06599
C -1.54507 -3.03708 -3.20940
C 1.28259 -4.44202 -1.32021
C -.04141 -4.40804 -1.90603
C -.26808 -3.66318 -3.02778
C 3.34505 -3.26290 -.92021
C 2.32064 -3.57597 -1.80865
C 1.64572 -3.82401 2.26774
C 3.24382 -3.55778 .47919
C 2.09573 -4.20594 .98621
C 1.12737 -4.67952 .05382
C 3.96244 1.69844 1.81254
C 4.12549 .31569 1.74485
C 3.31948 -.52823 2.62540
C 3.86277 -2.48677 1.19568
C 3.28770 -1.96984 2.37412
C 2.25780 -2.74799 2.95793
C 4.80941 .60846 -.61708
C 4.62586 2.03492 -.51732
C 4.25502 2.58043 .69784
C 4.46472 -1.60231 .22610
C 4.66649 -.23277 .50314
C .77083 -2.75576 -3.52267
C 2.00133 -2.61728 -2.88134
C 2.65641 -1.32601 -2.94145
C 4.10945 -2.04673 -1.06213
C 3.80848 -1.10735 -2.07985
C 4.28500 .18792 -1.88436
