100 

C -4.87480 -1.81000 .76833
C -1.41073 -3.92018 1.88353
C -2.67238 -3.35066 1.68182
C -3.29610 -3.63644 .44772
C -4.39602 -2.83401 -.02717
C -.67086 -4.47316 .81386
C -1.11420 -4.25742 -.51029
C -2.46979 -3.95846 -.67290
C 1.25436 -3.87993 -1.17957
C -.15806 -3.81570 -1.50762
C 2.15064 -3.30036 -2.06453
C 1.70377 -4.10022 .20705
C 2.96520 -3.51648 .66786
C .73041 -4.39685 1.15666
C 3.07559 -3.15073 2.02017
C -5.26380 -.40773 -1.21083
C -4.55733 -1.39435 -1.99912
C -5.40164 -.60758 .16449
C -4.19072 -2.60368 -1.44227
C -2.93553 -3.20267 -1.80932
C .34617 -2.19540 -3.31188
C 1.70388 -2.50558 -3.15745
C -.61000 -2.95345 -2.55495
C -2.01346 -2.55648 -2.63285
C -2.36128 -1.23943 -3.14745
C -3.61510 -.71020 -2.84901
C -4.90855 1.75617 .59237
C -4.77769 1.97386 -.84371
C -5.10053 .48288 1.07231
C -4.84891 .89421 -1.70016
C -3.79264 .70659 -2.66179
C -.29632 1.93415 -3.26368
C .88858 1.41637 -3.75469
C -1.46732 1.08127 -3.30401
C -2.71152 1.58620 -2.76253
C -2.71475 2.79660 -1.96291
C -3.76918 2.97553 -1.04759
C -.00334 -.86497 -3.79713
C -1.30979 -.31842 -3.52851
C 1.02850 .02942 -4.07822
C -2.33820 4.21464 .47426
C -3.98258 2.62885 1.26389
C -3.49702 3.53713 .25882
C -1.45620 3.51218 -1.72822
C -.23694 3.09036 -2.36470
C -1.36209 4.32940 -.59142
C -1.64316 4.05102 1.71783
C -1.88531 2.90061 2.49747
C -3.09383 2.15138 2.24975
C -3.15629 .74708 2.62857
C -4.22151 -.01201 2.11474
C -4.11548 -1.41907 1.95417
C -1.97951 .05951 3.12938
C -1.91445 -1.36026 3.04059
C -2.97487 -2.10086 2.36911
C -.30486 4.51331 1.46929
C .71104 4.06310 2.25843
C .47339 2.94095 3.13945
C -.75758 2.25581 3.15608
C -.75673 .83856 3.41462
C .49299 .17100 3.63360
C -.64849 -2.04327 3.30414
C -.48538 -3.36012 2.84210
C 2.04234 3.94358 1.71046
C 3.40051 3.43391 -.20130
C 2.25194 4.04605 .30632
C 2.17658 1.91592 -3.33618
C 2.26052 2.90927 -2.35220
C 1.03173 3.51777 -1.84712
C 1.08976 4.21050 -.57450
C -.10966 4.59269 .02092
C 3.43529 2.91933 -1.56142
C 1.70085 2.26312 3.27825
C 1.74554 .89318 3.51021
C .53633 -1.28290 3.62755
C 1.78670 -1.91271 3.52737
C 1.92876 -3.18382 2.88232
C .80190 -3.86371 2.48974
C 4.00018 .85181 2.33347
C 2.99818 .20748 3.17868
C 3.00217 -1.17483 3.26332
C 4.83700 .04351 1.54447
C 4.89323 1.68183 -.26355
C 4.23180 2.62053 .61174
C 3.78004 2.21994 1.89436
C 2.69896 2.93050 2.44138
C 5.20832 .43284 .19712
C 3.12083 .85243 -3.41134
C 4.15638 .73426 -2.46119
C 4.35866 1.85027 -1.60592
C 3.81368 -1.72452 -2.48357
C 2.75135 -1.56521 -3.46330
C 2.41767 -.31477 -3.91606
C 5.05494 -.72900 -.67305
C 4.52001 -.60247 -1.97485
C 3.83593 -1.98240 2.41545
C 4.69038 -1.37832 1.52856
C 4.73692 -1.84459 .15054
C 3.84898 -2.85311 -.29273
C 3.45922 -2.80806 -1.64613
