100 

C -2.75213 1.82079 3.06435
C -3.54228 .69425 2.81261
C -4.57947 .84976 1.85925
C -5.15683 -.29653 1.18055
C -4.68810 -1.55421 1.47843
C -1.41491 1.69590 3.58483
C -.78190 .46959 3.70992
C -1.56784 -.74310 3.42786
C -2.95436 -.61801 3.04692
C -3.59919 -1.71746 2.43536
C .57151 -2.03774 3.35055
C -.87467 -1.97011 3.17093
C -1.51752 -2.99753 2.40280
C -2.86233 -2.84663 2.05047
C 1.24696 -3.14921 2.84110
C 1.34022 -.82787 3.63312
C .68274 .44884 3.69039
C 2.72625 -.85318 3.41796
C -5.18610 -.81422 -1.22050
C -4.68548 -2.13882 -.91066
C -5.44588 .08058 -.19146
C -4.49910 -2.52628 .41945
C -3.37369 -3.32428 .76410
C -3.67527 -2.45913 -1.86699
C -2.58428 -3.26174 -1.54947
C -2.46393 -3.76702 -.20258
C .61275 -4.05689 1.91400
C -.73457 -3.92865 1.60585
C -1.17483 -4.25132 .26284
C -.21116 -4.54113 -.70274
C -4.48906 1.93803 -1.48726
C -4.16886 1.00024 -2.55407
C -5.07773 1.48091 -.32927
C -4.48279 -.35254 -2.40954
C -3.51864 -1.32855 -2.77428
C -2.24807 -.97516 -3.28160
C -1.38523 -3.13473 -2.37292
C -.30143 -3.91453 -2.01387
C .45870 4.38072 1.16931
C -.93097 4.16344 1.11820
C -4.55887 1.94389 .94726
C -3.41148 2.90839 -1.41516
C -2.92176 3.42088 -.20282
C -3.55015 2.93341 1.02804
C -1.57478 3.94717 -.17804
C -2.51321 2.61665 -2.47101
C -1.19142 3.01378 -2.43694
C -.74191 3.82984 -1.33869
C 1.56131 3.60446 -2.25812
C .68540 4.13688 -1.25965
C 1.25130 4.47276 -.03197
C -1.16216 -1.93249 -3.16990
C -1.94924 .41188 -3.47525
C -2.92034 1.37003 -3.10981
C 1.07140 2.61971 -3.20779
C -.24265 2.22931 -3.23629
C .15963 -1.53545 -3.49852
C .45625 -.11434 -3.74990
C -.57060 .84480 -3.60882
C -2.79360 2.95273 2.21438
C -1.50642 3.59697 2.26971
C 1.26123 3.80149 2.18080
C .70019 2.86036 3.07282
C -.69296 2.87022 3.18372
C 2.81526 1.55858 2.98088
C 1.42467 1.64218 3.38959
C 3.44704 .32050 3.06341
C 2.59100 3.61941 1.64860
C 4.41262 2.13579 1.14721
C 3.38503 2.54866 2.05359
C 2.89979 3.29828 -1.98472
C 3.42885 3.47370 -.66458
C 2.59529 4.07951 .29294
C 4.39869 2.54111 -.19730
C 5.12127 .32149 -.17672
C 4.94235 .78980 1.18571
C 4.51346 -.07593 2.14509
C 4.37764 -1.26101 -1.83814
C 4.81223 -1.03722 -.53162
C 3.27148 2.12298 -2.78068
C 4.03135 -.17080 -2.70464
C 4.20488 1.16875 -2.29677
C 4.81740 1.39763 -1.02541
C 1.01810 -3.59390 -2.44234
C 1.25887 -2.43094 -3.18321
C 2.58840 -1.93759 -3.13526
C 2.88299 -.56431 -3.45714
C 1.84984 .33696 -3.73937
C 2.13204 1.70611 -3.49902
C 1.58488 -4.44818 .93323
C 1.17553 -4.63952 -.37253
C 3.12987 -3.33584 -1.18648
C 1.94734 -4.04698 -1.44164
C 3.49936 -2.37053 -2.15961
C 4.34768 -1.48787 1.84171
C 3.37484 -1.97537 2.77235
C 2.64200 -3.09265 2.47463
C 4.40065 -1.97861 .52598
C 3.58601 -3.14792 .19233
C 2.82385 -3.74924 1.21140
