100 

C 3.48362 .61537 -2.61288
C 4.53601 .53946 -1.66559
C 5.03986 -.73348 -1.16695
C 2.90278 -.63055 -3.10438
C 3.41567 -1.85553 -2.60615
C 4.48036 -1.90354 -1.61906
C .99123 .62030 -3.93470
C 1.57742 -.63708 -3.62737
C -.74610 -1.57545 -3.56013
C .70184 -1.76567 -3.44814
C 1.19683 -2.90927 -2.75300
C 2.55558 -2.93757 -2.36880
C -1.57337 -2.57948 -3.09855
C -1.89708 3.64928 -2.19113
C -1.93154 2.48176 -2.99062
C -.73580 2.14844 -3.64614
C -.44665 .79612 -3.99492
C -2.62952 .10114 -3.13812
C -1.32297 -.23060 -3.71506
C 5.02135 -1.55401 1.14563
C 4.37431 -2.76524 .67608
C 5.38281 -.57077 .23321
C 4.17527 -2.97290 -.69000
C 2.97743 -3.60098 -1.13749
C 3.30659 -3.06797 1.57421
C 2.14205 -3.70172 1.15457
C 1.99883 -4.04544 -.23899
C -1.06911 -3.70272 -2.35930
C .29084 -3.80233 -2.05966
C .67158 -4.32821 -.76480
C -.33763 -4.61444 .15840
C 4.70959 1.20009 1.79466
C 4.21698 .18186 2.70573
C 5.18148 .83243 .55243
C 4.34967 -1.16372 2.37859
C 3.25215 -2.03406 2.59945
C 2.01024 -1.56560 3.09194
C .94637 -3.52221 1.96925
C -.20280 -4.14719 1.52873
C 2.35201 3.93905 .91501
C 3.45687 3.11241 .76179
C 3.82311 2.33740 1.90732
C 2.84137 2.02639 2.86609
C .53903 .43181 3.47670
C .39103 1.87790 3.20904
C 1.56703 2.63831 2.84781
C 1.44895 3.76907 2.02828
C -3.04637 -.62652 3.23519
C -1.92250 .20511 3.40909
C -.88343 2.42431 2.91313
C .83128 -2.36742 2.85763
C 1.86841 -.17752 3.42267
C 3.00020 .64867 3.26774
C -1.48932 -3.74477 1.99453
C -1.61804 -2.61364 2.82024
C -.44284 -1.84038 3.17593
C -.59281 -.40296 3.46656
C -2.89056 -2.01597 2.85859
C 3.75680 2.59913 -.56368
C 4.64736 1.49622 -.64106
C 1.59599 4.39881 -.21158
C 1.75061 3.80036 -1.46514
C 2.83950 2.82815 -1.64153
C 2.72869 1.82460 -2.67544
C 1.55948 1.81423 -3.49389
C .29350 4.78365 .29833
C -.79679 4.79300 -.52381
C -.67105 4.27812 -1.86875
C .57211 3.76550 -2.33692
C .49817 2.78229 -3.32599
C -2.08517 4.40303 -.00132
C -3.32686 3.10433 1.58143
C -2.19926 3.87261 1.31393
C -2.06571 1.60245 3.10845
C -.99325 3.63659 2.09953
C .17278 4.25499 1.65062
C -3.30065 2.06215 2.59523
C -4.91855 1.53659 1.00695
C -4.21929 2.70972 .54535
C -3.80137 2.83593 -.80191
C -2.79301 3.78296 -1.05370
C -5.23007 .54217 .10439
C -4.76089 -1.19915 1.77097
C -4.25532 -.16395 2.65611
C -4.36861 1.17718 2.30514
C -5.20279 -.85392 .50797
C -2.45069 -4.02134 .97545
C -3.60518 -3.23005 .84477
C -3.89907 -2.35746 1.93000
C -3.23113 -3.22268 -1.60727
C -2.08955 -4.11232 -1.44551
C -1.72469 -4.53355 -.17990
C -4.75916 -1.63298 -.63940
C -4.03365 -2.82960 -.49892
C -3.93486 1.68724 -1.69858
C -2.91125 1.43855 -2.72490
C -4.70720 .62057 -1.24919
C -4.45925 -.72014 -1.70064
C -3.43768 -.98808 -2.62295
C -2.92138 -2.30532 -2.63352
