100 

C -4.89971 1.03551 -.85582
C -4.26349 2.22136 -1.21728
C -.68141 4.23204 -1.69062
C -1.95929 3.75334 -1.84362
C -2.21606 2.56956 -2.62546
C -3.44118 1.94837 -2.40575
C .45488 3.55793 -2.27440
C .25125 2.35245 -3.01883
C 2.83056 3.07109 -2.05822
C 1.74059 3.85645 -1.69360
C 1.80690 4.49240 -.39710
C -4.57797 .02860 -1.86674
C -4.51854 -1.34545 -1.54915
C -4.78566 -1.75094 -.20108
C -3.63859 -2.14491 -2.31032
C -3.64671 .59825 -2.77392
C -2.60151 -.15957 -3.35771
C -2.73556 -1.55501 -3.24261
C -.30343 -1.86358 -3.65260
C -1.58045 -2.40041 -3.32975
C .77550 -2.70034 -3.36808
C 2.34017 -.82105 -3.41157
C -1.09804 1.81437 -3.17881
C -1.28211 .44808 -3.53869
C 2.09371 -2.19330 -3.30786
C 2.65791 1.94081 -2.90317
C 1.38669 1.50326 -3.29950
C 1.20732 .08787 -3.60145
C -.11136 -.43045 -3.72391
C -2.97688 -3.27657 -1.72477
C -3.08587 -3.55911 -.36753
C -4.10008 -2.83762 .35963
C -3.92570 -2.54665 1.76909
C -2.83354 -3.02250 2.42165
C -1.72077 -3.44961 -2.41453
C .64077 -3.76639 -2.38998
C -.57923 -4.00445 -1.76509
C -.61748 -4.25727 -.34000
C -1.89701 -4.06234 .35390
C -1.87271 -3.87551 1.73459
C -3.74610 1.04453 2.61017
C -3.59794 -.31785 2.84116
C -4.37805 -1.19830 2.02758
C -.77681 -2.66762 3.40067
C -2.09585 -2.16284 3.33489
C -2.34488 -.79036 3.42466
C .30085 -1.82713 3.67660
C .10646 -.39367 3.73325
C -1.21331 .12170 3.60521
C -1.39527 1.53344 3.28943
C -2.66726 1.96559 2.88893
C 2.59655 -.12353 3.36529
C 1.27576 .48404 3.54011
C 1.08900 1.84640 3.16736
C 3.64049 .63011 2.77440
C 2.73307 -1.51963 3.26382
C 1.57897 -2.36553 3.35967
C 1.87355 -3.89013 -1.68971
C 1.89866 -4.06329 -.30691
C .61946 -4.25299 .38933
C .58049 -3.98642 1.81180
C -.64045 -3.74354 2.43375
C 1.72124 -3.42382 2.45547
C -4.98472 -.73342 .84651
C -4.49825 1.54012 1.50070
C -5.00983 .65242 .53440
C -3.92642 2.80800 1.12283
C -3.79604 3.15152 -.22583
C -2.70915 4.00103 -.59126
C -2.84206 3.08753 2.03445
C -1.75314 3.87102 1.66292
C -1.82047 4.49464 .36047
C .58377 4.81892 .31009
C -.59777 4.81531 -.35019
C -.26136 2.38114 3.00193
C -.46705 3.57927 2.24692
C 3.43210 1.97643 2.39325
C 2.20567 2.59776 2.60710
C 1.94672 3.77337 1.81361
C .66813 4.24876 1.65608
C 4.89135 1.05071 .85077
C 4.25314 2.23877 1.20094
C 3.63716 -2.11719 2.33770
C 4.78329 -1.74212 .22380
C 4.51552 -1.32373 1.56824
C 4.57222 .05369 1.87218
C 2.83303 -3.04308 -2.38586
C 3.92477 -2.55903 -1.73828
C 4.09978 -2.83554 -.32567
C 3.08697 -3.55127 .40934
C 2.97729 -3.25577 1.76403
C 3.73852 1.02378 -2.61629
C 3.59268 -.34118 -2.83311
C 4.37414 -1.21228 -2.01047
C 2.69614 4.00940 .55872
C 3.78413 3.15818 .20068
C 3.91544 2.80192 -1.14553
C 5.00207 .65406 -.53561
C 4.48960 1.53147 -1.51161
C 4.97980 -.73458 -.83407
