100 

C -4.60669 -2.28746 -.74705
C -4.35955 -1.68922 -2.05709
C -5.00730 -1.49974 .30693
C -4.50340 -.33241 -2.22556
C -3.47532 .39824 -2.92238
C .16039 -.05050 -3.77879
C 1.29774 .74958 -3.82919
C -1.13352 .60577 -3.58203
C -2.30216 -.21335 -3.39626
C -2.17550 -1.65669 -3.26577
C -3.22946 -2.36001 -2.64702
C -2.30662 2.49639 -2.46297
C -3.43344 1.70770 -2.36472
C .13672 3.92544 -2.36698
C .05182 2.77044 -3.20386
C -1.17330 1.98890 -3.21279
C 1.24850 2.16276 -3.57373
C -1.71104 -4.05635 -1.81942
C -3.62173 -3.31327 -.53346
C -2.94955 -3.48936 -1.79560
C -.85143 -2.26866 -3.28731
C .33983 -1.45398 -3.50166
C -.69960 -3.52257 -2.69038
C -1.08327 -4.46157 -.59042
C -1.55917 -3.99133 .63926
C -2.89432 -3.40570 .67249
C -3.26801 -2.52795 1.76439
C -4.38043 -1.67425 1.59193
C -4.45679 -.40245 2.25717
C -2.26976 -2.16997 2.75524
C -2.46832 -1.00664 3.50785
C -3.53752 -.09466 3.22539
C .13300 -1.99854 3.35764
C 1.44840 -2.42812 3.20734
C .80971 -4.01417 1.46733
C -.57551 -3.67650 1.67999
C -.91787 -2.70955 2.68570
C 1.78635 -3.47479 2.33590
C .32447 -4.52869 -.86819
C 1.27133 -4.41900 .14746
C 3.57606 -3.57865 .66893
C 3.18015 -3.29190 1.95677
C 2.59212 -4.08402 -.26400
C 2.57708 .27386 -3.43349
C 2.75533 -1.02446 -2.97852
C 1.63398 -1.93690 -3.09190
C 1.72429 -3.20373 -2.38901
C .55901 -3.93486 -2.14913
C 2.80303 -3.44494 -1.50921
C -2.45261 3.29306 2.21916
C -3.36510 2.22938 2.37711
C -3.03534 1.25792 3.34140
C -.05506 -.63036 3.81191
C -1.35433 -.20759 3.95712
C -1.70161 1.17680 3.84518
C 1.00694 .36511 3.63728
C -.72359 2.12443 3.51083
C -1.18305 3.27595 2.83123
C -4.21731 1.86455 1.24567
C -4.86432 .61328 1.29186
C -5.25837 -.07572 .10644
C -3.94513 2.45567 -.05307
C -4.32010 1.75014 -1.20073
C -4.99420 .49665 -1.13431
C -1.02164 4.59393 .93779
C -2.32625 4.00099 .95346
C -2.89639 3.47028 -.20232
C -.38338 4.82467 -.27946
C -.95760 4.27519 -1.47535
C -2.13686 3.54907 -1.45220
C 2.56855 -1.50382 3.31441
C 2.34849 -.10903 3.35710
C .66805 1.71921 3.38896
C 1.60274 2.58403 2.65215
C 1.08120 3.73915 1.90816
C -.27863 4.06829 2.02942
C 3.30262 .75970 2.73523
C 2.89368 2.10386 2.34372
C 3.64542 2.74933 1.29086
C 3.05426 3.67222 .44208
C 1.76437 4.20488 .72794
C 1.02103 4.71050 -.36581
C 4.56012 -1.23481 1.95917
C 3.65239 -2.07243 2.60261
C 4.95470 .74630 .86039
C 4.42237 .17084 2.08718
C 4.58645 1.99454 .48457
C 4.42772 -2.64442 -.05622
C 5.09051 -.31275 -.13139
C 4.96614 -1.53835 .58156
C 3.33220 1.39448 -2.90627
C 4.35336 2.29629 -.91235
C 4.23345 1.21992 -1.85518
C 4.54771 -.14346 -1.42414
C 3.85755 -1.26638 -2.03311
C 3.88934 -2.49696 -1.36959
C 1.33828 4.26129 -1.73023
C 3.47714 3.39024 -.94175
C 2.54591 3.55383 -2.00683
C 2.50647 2.55948 -3.00266
