100 

C 1.14312 3.55625 -2.70020
C 2.25792 2.72793 -2.86951
C 3.33031 2.91574 -1.95852
C 4.29303 1.86836 -1.70952
C 4.19780 .69018 -2.40246
C -.18216 3.12978 -3.11018
C -.41487 1.84281 -3.60798
C .73188 .95544 -3.81175
C 2.06607 1.42070 -3.48445
C 3.07579 .46762 -3.29786
C -.84175 -.89802 -4.01978
C .50079 -.44751 -3.91966
C -2.37702 3.18732 -1.95830
C -1.13599 3.79113 -2.29940
C -4.44783 1.60167 -.87609
C -3.82138 1.16099 -2.06238
C -2.73075 1.95123 -2.60081
C -1.75088 1.31449 -3.46844
C -1.94073 -.03096 -3.81708
C 4.58112 -1.84129 .29809
C 4.85308 -.62140 -.37807
C 4.50448 -.56869 -1.74362
C 3.65983 -1.56377 -2.31392
C 1.92501 -3.27181 -1.88067
C 3.22847 -2.67887 -1.58299
C 3.81745 -2.86317 -.30746
C -.00140 -4.54697 -1.05142
C 1.33011 -4.16469 -.89169
C 1.49792 -1.40583 -3.49995
C 2.77708 -.92438 -3.26010
C -1.22058 -2.20768 -3.62439
C -.28563 -3.08108 -3.00584
C 1.09924 -2.67960 -2.88824
C -.80618 -4.03266 -2.10614
C 4.85086 .62375 .39384
C 4.57963 1.84282 -.28294
C 4.28999 -1.86688 1.72365
C 4.19058 -.68893 2.41612
C 4.49765 .57066 1.75853
C 3.32796 -2.91638 1.96942
C 2.25248 -2.73013 2.87774
C 1.13996 -3.55958 2.70523
C 1.88580 -4.22681 .46885
C 3.09623 -3.57275 .73712
C 1.00638 -4.39311 1.56709
C 3.64975 1.56376 2.32528
C 3.21927 2.67826 1.59299
C 3.81232 2.86391 .32027
C 1.91308 3.26980 1.88499
C 1.32246 4.15966 .89630
C -.01175 4.54088 1.05205
C 2.76478 .92178 3.26926
C 1.48295 1.40216 3.50442
C 1.08442 2.67552 2.89138
C -1.23486 2.19486 3.62121
C -.29775 3.07473 3.00259
C -.81535 4.02431 2.10176
C 2.05574 -1.42347 3.49202
C 3.06564 -.46704 3.30850
C -.18522 -3.13312 3.11049
C -.42262 -1.85200 3.60635
C .72310 -.96007 3.81449
C .48874 .44346 3.92058
C -.85616 .89461 4.01562
C 1.88186 4.22392 -.46183
C 3.09379 3.57240 -.72641
C -.88980 4.78145 -.08453
C -.40909 4.60923 -1.36387
C 1.00532 4.38964 -1.56309
C -2.19609 4.30775 .25162
C -2.96835 3.54941 -.69023
C -3.98073 2.72722 -.16566
C -2.61358 2.14517 3.19546
C -3.07448 2.97222 2.14616
C -2.17835 3.94654 1.62979
C -4.05882 2.44424 1.26856
C -3.05050 .79620 3.29577
C -3.95837 .23946 2.38024
C -4.55024 1.13192 1.43678
C -1.13834 -3.80124 2.29170
C -2.37826 -3.20036 1.94726
C -2.73895 -1.96165 2.58817
C -1.76358 -1.32159 3.46134
C -1.95740 .01895 3.80703
C -4.45042 -1.62095 .85515
C -3.82581 -1.17615 2.04708
C -2.18683 -4.32117 -.25564
C -.88549 -4.79030 .08081
C -.40824 -4.61499 1.36517
C -3.97950 -2.74187 .15023
C -2.96341 -3.56469 .67939
C -2.59687 -2.15998 -3.20756
C -4.05211 -2.45946 -1.28658
C -3.06117 -2.98748 -2.15981
C -2.16484 -3.95775 -1.64288
C -4.93961 .65521 .11997
C -4.93922 -.67402 -.14218
C -4.54470 -1.15067 -1.45700
C -3.94868 -.25614 -2.39908
C -3.03696 -.80976 -3.30862
