100 

C -4.60875 .58356 1.45336
C -4.90062 .79642 .10186
C -2.89763 .20631 3.71354
C -3.14331 1.47434 3.27752
C -4.05880 1.69506 2.17561
C -1.54518 -.17709 4.06103
C 1.95608 .99767 3.47085
C 3.21386 .43150 3.26443
C .84528 .10695 3.73871
C -.46143 .68895 3.90222
C -.71818 2.05093 3.43339
C -2.05384 2.41593 3.17158
C -3.63855 2.86499 1.51786
C -3.85114 3.03397 .12205
C -4.51741 2.00249 -.56835
C -2.91708 3.82127 -.60932
C -2.37688 3.31138 2.13143
C .00189 3.71207 1.73697
C -1.36774 3.93122 1.38297
C -1.69699 4.33114 .03525
C 2.35203 3.71631 1.04313
C 1.02374 4.04145 .75339
C 1.69819 2.33293 2.96291
C .32501 2.79068 2.79283
C 2.70260 2.96289 2.22633
C -2.62039 3.53425 -1.94909
C -3.09575 2.32806 -2.56354
C -4.12067 1.65620 -1.90325
C -4.30716 .23376 -2.06798
C -3.43777 -.52888 -2.88464
C -3.40458 -1.90180 -2.62163
C -1.27962 4.01851 -2.19920
C -2.17685 1.55793 -3.42067
C -2.28475 .12405 -3.51834
C -.48816 3.38466 -3.10667
C -.94259 2.14912 -3.73050
C .67711 4.24007 -.61711
C -.71094 4.45017 -.92982
C .94186 3.27058 -2.86994
C 1.54177 3.72455 -1.63987
C -4.81943 -.28678 -.86025
C -3.98274 -2.45468 -1.43762
C -4.55191 -1.61492 -.45897
C -3.19437 -3.60741 -1.07358
C -2.97032 -3.88049 .25134
C -2.11050 -3.73526 -2.01927
C -.82665 -4.15753 -1.61547
C .23652 -3.79986 -2.46638
C .20746 1.37149 -3.96922
C .16625 -.01793 -3.98537
C -1.11892 -.66030 -3.83494
C -1.13485 -2.09603 -3.57887
C -2.25346 -2.69227 -2.97881
C .08933 -2.77795 -3.43095
C -3.58457 -3.05670 1.27234
C -4.31335 -1.89191 .95582
C -4.31249 -.78570 1.91110
C -2.70505 -3.09629 2.40154
C -2.68556 -2.04784 3.28459
C -3.55680 -.92862 3.08777
C -1.45719 -3.72528 2.01123
C 2.21655 -2.92491 2.03166
C 3.32069 -3.08630 1.19308
C .94431 -3.52911 1.63861
C -.21617 -3.24592 2.44409
C -.19772 -2.11550 3.37683
C -1.41313 -1.57494 3.79677
C -.55001 -4.33168 -.18724
C -1.62887 -4.23900 .69329
C 1.60062 -3.78625 -1.99294
C 1.88398 -3.96535 -.61971
C .78241 -4.07922 .33066
C 3.12763 -3.50145 -.17581
C 2.22843 -1.81094 2.96738
C .97773 -1.28872 3.48103
C 3.35126 -.98337 3.01744
C 4.83274 -1.92573 -.15181
C 4.44511 -2.19029 1.21824
C 4.48639 -1.17250 2.15235
C 5.19095 -.64706 -.52835
C 2.30735 -2.80691 -2.72876
C 3.44160 -2.16715 -2.20384
C 3.97188 -2.70917 -1.00990
C 1.37324 2.08949 -3.46014
C 2.53784 1.39952 -3.00277
C 2.61043 -.01836 -3.18957
C 1.42780 -.73009 -3.71986
C 1.35742 -2.09629 -3.54535
C 4.56731 -.04790 -1.70486
C 3.63383 -.75527 -2.49885
C 4.33997 2.61718 .60790
C 3.28613 3.41907 .02182
C 2.82184 3.19979 -1.29720
C 4.94900 1.63539 -.14319
C 4.42683 1.33788 -1.46938
C 3.36264 2.06483 -2.03917
C 5.01621 .12909 1.79707
C 4.25605 1.11378 2.54208
C 3.97719 2.34942 1.98500
C 5.35730 .38864 .47038
