100 

C 3.26469 -1.15949 -2.89851
C 2.61647 -2.38858 -2.75691
C 3.12947 -3.26423 -1.76878
C 2.25805 -4.24248 -1.14616
C 1.01441 -4.45776 -1.65574
C 2.55969 -.00496 -3.39931
C 1.18940 -.00671 -3.61721
C .47585 -1.28984 -3.52159
C 1.21731 -2.47793 -3.16333
C .51092 -3.61931 -2.74245
C -1.67550 -.00935 -3.46332
C -.95121 -1.29207 -3.44250
C -1.64280 -2.48067 -2.99944
C -.88968 -3.61824 -2.65549
C -3.01751 -.01012 -3.11647
C -1.64824 2.46366 -3.00914
C .50292 3.60763 -2.75658
C 1.21179 2.46633 -3.17330
C .47298 1.27536 -3.52688
C -.95406 1.27499 -3.44766
C -.89770 3.60406 -2.66937
C -2.41879 -4.18017 -.83356
C -.07587 -4.74423 -.76421
C -1.25994 -4.44299 -1.50592
C -3.37392 -3.25010 -1.39189
C -3.67533 -1.16969 -2.55932
C -2.99204 -2.39824 -2.44837
C -2.38966 -4.00945 .59279
C -1.17928 -3.96270 1.29522
C .01705 -4.41488 .60658
C 1.32482 -4.09069 1.14101
C 2.44050 -4.18470 .28091
C 3.61932 -3.39927 .49227
C 1.42593 -3.24547 2.31435
C 2.66189 -2.64755 2.58924
C 3.75589 -2.68803 1.65392
C .36577 -1.45409 3.66830
C -.78502 -.73048 4.01739
C -2.23877 -2.30540 2.83775
C -1.08160 -3.06219 2.44746
C .22665 -2.66379 2.91551
C -2.05929 -1.17815 3.68194
C -3.50276 -3.16226 .92697
C -4.32708 -1.18162 2.02034
C -3.46224 -2.33485 2.03878
C -4.60136 -.73979 -1.59353
C -4.75932 -1.47466 -.38100
C -4.13771 -2.73198 -.29954
C -4.92870 -.74143 .83763
C 3.90399 .69491 2.77416
C 4.42161 -1.39553 1.64980
C 3.90563 -.68014 2.77702
C 1.62442 -.72706 3.71847
C 2.76155 -1.39208 3.29176
C 2.75808 1.40601 3.28568
C 1.62251 .74004 3.71499
C 4.41856 1.40754 1.64426
C 4.73324 .73612 .44879
C 4.73481 -.72753 .45176
C 4.51564 -1.45864 -.80384
C 4.01222 -2.78107 -.76612
C 4.24787 -.72428 -1.97692
C 3.74989 2.69850 1.64298
C 3.61202 3.40564 .47879
C 4.00614 2.78380 -.77725
C 4.51231 1.46231 -.80963
C 4.24613 .72313 -1.97981
C -.78666 .73961 4.01433
C .36234 1.46420 3.66162
C 1.41880 3.25309 2.30109
C 2.65587 2.65870 2.57816
C 3.26179 1.15298 -2.90300
C 3.12230 3.26165 -1.78166
C 2.61106 2.38137 -2.76642
C 2.24884 4.24040 -1.16257
C -.08618 4.73856 -.78237
C 1.00471 4.45129 -1.67287
C -2.06167 1.18370 3.67732
C -2.24344 2.30779 2.82870
C -1.08811 3.06549 2.43539
C .22086 2.67101 2.90448
C -2.39839 4.00405 .57773
C -1.18774 3.96209 1.27999
C .00759 4.41422 .58958
C 1.31603 4.09454 1.12505
C 2.43151 4.18796 .26467
C -4.32935 1.17705 2.01590
C -4.01095 -.00056 2.80152
C -2.91291 .00184 3.59903
C -3.50946 3.15543 .91512
C -3.46702 2.33211 2.02994
C -4.60290 .72133 -1.59637
C -4.14351 2.71910 -.30978
C -4.76232 1.46025 -.38651
C -4.93003 .73114 .83488
C -1.26974 4.43210 -1.52270
C -2.42806 4.16968 -.84919
C -3.38096 3.23522 -1.40409
C -2.99726 2.38040 -2.45754
C -3.67782 1.15007 -2.56380
