100 

C -2.59900 3.49163 1.65965
C -3.72791 2.83665 1.17793
C .06392 4.40087 2.07251
C -.62539 4.85044 .98036
C -1.99003 4.42465 .77962
C 1.79386 4.02515 -1.69060
C .03644 4.88308 -.30698
C 1.40206 4.52177 -.44041
C 2.16226 4.11601 .73861
C 3.30754 3.22051 .58314
C 1.48646 4.14032 1.97715
C 3.70201 2.46453 1.69115
C -2.18967 4.28466 -.61263
C -3.14216 3.38978 -1.12959
C -4.08206 2.88171 -.20202
C -4.86576 1.70611 -.48807
C -4.65598 1.03121 -1.67497
C -.92103 4.49804 -1.27892
C .81989 3.59172 -2.63533
C -.55030 3.68510 -2.37185
C -1.43054 2.60531 -2.81116
C -2.77979 2.56893 -2.28511
C -3.55286 1.43394 -2.53164
C -5.08451 -.42756 .72374
C -5.03447 -1.13832 -.55636
C -4.97662 .94837 .75182
C -4.72945 -.42050 -1.70781
C -3.68246 -.89208 -2.55824
C -4.41213 -2.40204 -.33285
C -3.44751 -2.92336 -1.21506
C -3.02439 -2.09849 -2.33401
C -1.61339 .19709 -3.41080
C -2.96278 .25487 -3.07400
C 2.62750 .00198 -3.53151
C 1.24043 .04970 -3.69730
C .48222 -1.17991 -3.49503
C -.95011 -1.11088 -3.38306
C -1.67918 -2.24020 -2.88291
C 1.17847 -2.36069 -3.06749
C .42634 -3.45663 -2.61195
C -.96800 -3.40083 -2.52908
C -.85647 1.42408 -3.38611
C 1.35795 2.47489 -3.36185
C .57880 1.34659 -3.62335
C -3.23627 -3.32098 1.60380
C -4.39217 -1.19637 1.70157
C -4.19639 -2.50402 1.11077
C -2.50576 -4.20436 .71837
C -1.39277 -4.24957 -1.42549
C -2.54000 -3.95249 -.69864
C -2.32837 -2.82939 2.62188
C -2.28101 -1.44643 2.96956
C -3.39938 -.61630 2.53238
C -3.26172 .81062 2.53301
C -4.13920 1.56385 1.72691
C -.92159 .59628 3.40175
C -2.01453 1.42397 2.98752
C -1.78384 2.82117 2.66852
C -.52793 3.36829 2.92430
C -1.17217 -3.59166 2.52434
C 1.22703 -3.74088 2.40482
C .07862 -3.05572 2.90433
C .17313 -1.68964 3.31642
C -1.03203 -.86700 3.33235
C 1.48974 -1.07314 3.34565
C .37991 1.18289 3.59716
C .52384 2.57222 3.43473
C -.21506 -4.77771 -.80121
C -.13443 -4.84000 .60778
C -1.29457 -4.48901 1.35598
C 1.12767 -4.60117 1.20850
C 2.46656 -3.12976 2.40048
C 2.62933 -1.78761 2.86012
C 1.58814 .36240 3.54364
C 2.80747 .99009 3.26542
C 2.87458 2.36953 2.85544
C 1.76799 3.16195 2.97744
C 3.19374 -3.62699 1.23708
C 4.13537 -2.84984 .63767
C 4.51481 -1.58341 1.24287
C 3.79082 -1.07010 2.35466
C 3.84843 .30871 2.55090
C .91404 -4.33916 -1.56062
C 2.16124 -4.13074 -.97266
C 2.27766 -4.40367 .43082
C 4.37756 -.69046 -2.16439
C 3.28799 -1.15477 -2.97679
C 2.58072 -2.31112 -2.66865
C 4.74693 -1.41640 -1.05936
C 4.13857 -2.68557 -.80745
C 3.06465 -3.15431 -1.58226
C 2.74005 2.36793 -2.99152
C 4.32302 .76173 -2.10874
C 3.37682 1.15728 -3.10359
C 4.36856 1.18575 1.55193
C 4.93970 -.71918 .20749
C 4.76182 .68848 .30340
C 4.42373 1.46463 -.89153
C 3.70042 2.72835 -.74927
C 2.97353 3.19685 -1.84879
