100 

C 1.53784 3.51366 2.40361
C 1.87867 2.23262 2.86386
C 3.17792 1.70768 2.47017
C 3.46668 .30602 2.64788
C 4.52564 -.25813 1.90194
C 4.56883 -1.66120 1.58617
C 2.43366 -.57156 3.17439
C 2.61953 -1.95615 3.00644
C 3.66646 -2.50869 2.17921
C .18356 3.93711 2.30511
C .00825 -1.00826 3.53303
C -1.62925 .87680 3.49331
C -.86428 3.12472 2.73626
C -.54448 1.81619 3.29343
C .81465 1.35016 3.31144
C 1.09580 -.07628 3.44844
C -2.95308 1.26644 3.15227
C -3.21066 2.44501 2.40138
C -2.18139 3.38868 2.17030
C -2.30116 4.19395 1.01936
C 4.22390 -2.77331 -.57809
C 3.37228 -3.75504 .07803
C 4.87267 -1.80170 .16227
C 3.11304 -3.63455 1.44188
C 1.78550 -3.84804 1.92003
C 2.28950 -4.05701 -.80729
C 1.00396 -4.39063 -.33551
C .74932 -4.29512 1.08143
C -2.16279 -2.75468 2.85979
C -.86479 -3.20813 2.65622
C -.60837 -4.11635 1.55045
C -1.65189 -4.39672 .66022
C -1.35215 -.52769 3.60981
C .21722 -2.39579 3.17896
C 1.51004 -2.83463 2.91951
C -2.40761 -1.44791 3.38934
C 4.42592 -.10988 -1.59546
C 3.63173 -1.10187 -2.30930
C 5.03631 -.49035 -.38393
C 3.60283 -2.40811 -1.81570
C 2.43892 -3.24701 -1.98632
C 1.33225 -2.84291 -2.73249
C 1.36193 -1.53345 -3.36641
C 2.52099 -.68357 -3.16753
C 2.38525 .67711 -3.43747
C -1.05509 -1.73691 -3.74062
C .12418 -.94936 -3.79499
C -1.40226 -4.45893 -.75411
C -.09825 -4.27791 -1.26087
C .07402 -3.51507 -2.47757
C -1.07294 -3.01862 -3.11786
C 5.04016 .42693 .74684
C 3.18372 1.68201 -2.75703
C 4.15537 1.31431 -1.80386
C 4.39914 2.23555 -.75951
C 4.74677 1.74630 .56451
C 2.38810 2.83832 -2.60125
C 2.50587 3.66353 -1.46609
C 3.57406 3.38206 -.58250
C 3.39789 3.56670 .84881
C 2.25439 4.13902 1.31688
C .02551 4.12766 -1.64572
C 1.30326 4.32910 -.96388
C 1.28550 4.70033 .39400
C -1.13965 4.47709 -.97192
C -1.13418 4.77961 .42977
C .05780 4.76589 1.11900
C -.03810 .48468 -3.84896
C 1.11779 1.25535 -3.73288
C 1.08772 2.57422 -3.20263
C -1.33743 2.42810 -2.98149
C -.08869 3.13665 -2.73176
C -1.31038 1.11406 -3.56253
C 3.94890 2.43373 1.53620
C -2.33584 -1.14350 -3.58440
C -2.48428 .25938 -3.46609
C -3.61727 .70643 -2.76645
C -3.64188 2.00030 -2.17114
C -2.53405 2.86647 -2.27267
C -2.41460 3.85875 -1.27244
C -2.56011 -3.93394 -1.42370
C -2.39344 -3.23501 -2.60218
C -4.07764 -1.56603 -1.87582
C -3.16768 -2.04907 -2.83568
C -4.38149 -.17961 -1.94160
C -4.11241 -1.95013 1.84961
C -3.24246 -3.08906 1.95598
C -2.97644 -3.85511 .84941
C -4.56031 -1.48209 .60403
C -4.20931 -2.25619 -.59356
C -3.50452 -3.46024 -.43248
C -4.63049 .79939 1.59133
C -3.94426 .31012 2.75847
C -3.68167 -1.02835 2.88156
C -4.82759 .55068 -.80607
C -4.86440 -.05167 .48557
C -3.15554 3.76378 -.06343
C -4.42603 1.91773 -.98041
C -4.11562 2.73758 .12791
C -4.21605 2.16192 1.42284
