100 

C -5.02733 .72967 -.29789
C -3.57064 -3.11664 .49203
C -4.35926 -2.00130 .17490
C -4.67562 -1.12679 1.24567
C -4.97319 .27219 .99670
C -1.67682 -3.96449 1.54991
C -2.89208 -3.21005 1.73966
C -2.95807 -2.17508 2.67697
C -3.97962 -1.20954 2.47759
C -.47529 -3.60288 2.16578
C -.48371 -2.46523 3.09815
C -1.73350 -1.81209 3.39248
C 2.01735 -2.31701 2.86424
C .75940 -1.79778 3.39865
C 3.15310 -1.49889 2.92812
C 2.02034 -3.41220 1.91301
C .76554 -4.03331 1.53504
C 3.12198 -3.54042 1.03849
C .69836 -4.68914 .28802
C -2.73216 .46896 3.72667
C -4.34974 1.06724 2.02413
C -3.84160 .14378 2.99250
C -.49725 .16066 4.15126
C -1.70453 -.52747 3.98585
C .73654 -.44549 3.88286
C -2.09350 1.73794 3.52599
C -2.48564 2.61617 2.49793
C -3.66745 2.26841 1.71816
C -3.81189 2.79279 .37043
C -4.48403 2.03162 -.61502
C -2.85770 3.71971 -.09392
C -.72587 1.57476 3.87111
C .27786 2.37661 3.33410
C -.08657 3.40395 2.38091
C -1.47070 3.50529 1.95724
C -1.74881 4.13566 .72444
C 2.30375 3.61560 1.81150
C .95761 3.98859 1.56592
C 3.07852 -.12072 3.33728
C 1.86692 .44838 3.70038
C 1.63858 1.86416 3.40924
C 2.63522 2.57754 2.75233
C -2.43064 3.72248 -1.44605
C -2.86746 2.73280 -2.35158
C -3.99800 1.98560 -1.95730
C -4.22671 .64311 -2.45967
C -3.33038 .09936 -3.34515
C -1.08899 4.22462 -1.48646
C 1.21001 3.94903 -2.07250
C -.13811 3.71098 -2.39531
C -.49120 2.56256 -3.23379
C -1.88120 2.13520 -3.26403
C -2.17105 .86911 -3.77681
C .64396 4.51061 .25753
C -.70722 4.54228 -.14628
C 1.60350 4.42383 -.78034
C -4.32280 -1.48915 -1.19171
C -3.38122 -2.06510 -2.13972
C -4.76294 -.16530 -1.40272
C -2.93661 -1.26827 -3.20699
C -1.23549 -3.38523 -2.38679
C -2.54213 -3.19730 -1.75835
C -2.76460 -3.78403 -.50617
C -.31215 -4.23825 -1.77097
C -.53514 -4.74613 -.44301
C -1.71047 -4.45461 .19827
C 2.24881 3.10411 -2.56779
C 1.93399 1.96212 -3.32391
C .54673 1.65833 -3.64332
C .21395 .28471 -3.96735
C -1.13297 -.06195 -4.05202
C -1.59164 -1.37701 -3.71379
C 1.16354 -.79556 -3.76902
C .71278 -2.11775 -3.37167
C -.70680 -2.37237 -3.28023
C 2.88228 .91334 -3.29345
C 2.50174 -.44161 -3.53784
C 1.63346 -3.00532 -2.68653
C 1.09965 -4.06608 -1.93526
C 3.28073 3.57855 .77214
C 2.92058 3.93083 -.52410
C 4.10300 1.92681 -1.40501
C 3.31770 3.09474 -1.61379
C 3.95683 .90677 -2.35744
C 4.65725 -.24314 1.61962
C 4.07329 .62146 2.59990
C 3.84708 1.94298 2.29990
C 4.80235 .17047 .28412
C 4.52946 1.57135 -.04471
C 4.16355 2.44401 .99540
C 4.42872 -2.20230 -.38853
C 4.16578 -2.55824 .99680
C 4.21470 -1.58663 1.95656
C 4.26757 -.47357 -2.04692
C 4.68542 -.85947 -.75656
C 1.72579 -4.49054 -.69878
C 3.39668 -1.29242 -2.80832
C 2.98144 -2.55817 -2.35643
C 3.62783 -3.05620 -1.20053
C 2.93257 -3.96985 -.32039
