100 

C -3.93652 .63759 -3.29865
C -4.48112 -.52818 -2.50340
C -5.31276 -.26358 -1.26778
C -3.93987 -1.91797 -2.75294
C -2.64106 .46662 -4.08761
C -.37673 -.84749 -3.97483
C -1.89136 -.84166 -3.96560
C -2.64380 -2.08482 -3.53952
C 1.83671 -2.16502 -3.75199
C .33691 -2.08382 -3.60467
C -3.94120 -2.93801 -1.61902
C -4.48387 -2.54120 -.26388
C -5.31421 -1.28366 -.13276
C -3.94179 -3.20800 .98047
C -2.64662 -3.74257 -1.70141
C -.38122 -4.04320 -.41893
C -1.89582 -4.03092 -.42007
C -2.64669 -4.00891 .89482
C 1.83329 -4.24052 .90102
C .33373 -4.07335 .87052
C -.35601 -3.09316 -2.78552
C -1.85649 -3.22091 -2.89500
C 2.62429 -3.03247 -2.77557
C 1.87219 -3.70519 -1.64675
C .35824 -3.71209 -1.65346
C 2.62331 -4.09823 -.39372
C -3.94078 -2.44464 2.30100
C -4.48230 -1.03297 2.34308
C -5.31363 -.51943 1.18837
C -3.93820 -.05621 3.36145
C -2.64562 -2.77246 3.03928
C -.37832 -1.64755 3.71879
C -1.89293 -1.64370 3.70868
C -2.64237 -.38600 4.09523
C 1.83791 -.45576 4.31252
C .33823 -.43133 4.14538
C -.35727 -3.60512 2.08424
C -1.85767 -3.74749 2.17366
C 2.62281 -3.58077 2.02697
C 1.87290 -2.71378 3.01610
C .35903 -2.72030 3.02181
C 2.62596 -1.64421 3.77626
C -3.93659 1.43540 3.04377
C -4.47924 1.91167 1.71462
C -5.31207 .97299 .86981
C -3.93468 3.18145 1.09992
C -2.64033 2.03538 3.58259
C -.37299 3.02893 2.72164
C -1.88785 3.02075 2.71575
C -2.63800 3.77680 1.63943
C 1.84367 3.95868 1.76853
C .34334 3.80987 1.69594
C -.35185 .86835 4.07630
C -1.85215 .91034 4.24111
C 2.62824 .81805 4.03199
C 1.87877 2.02761 3.51438
C .36476 2.03298 3.52451
C 2.63213 3.08040 2.73178
C -3.93413 3.33995 -.41690
C -4.47852 2.22370 -1.28048
C -5.31188 1.13113 -.64813
C -3.93529 2.03100 -2.67854
C -2.63777 4.03703 -.82182
C -.37185 3.52248 -2.03337
C -1.88658 3.51573 -2.02689
C -2.63818 2.72678 -3.07851
C 1.84244 2.90219 -3.21523
C .34255 2.78761 -3.09349
C -.34788 4.14586 .43935
C -1.84834 4.31543 .45111
C 2.63283 4.08486 .46961
C 1.88155 3.96711 -.83960
C .36747 3.97964 -.83960
C 2.63286 3.54644 -2.08352
C -.35023 1.69683 -3.80114
C -1.85034 1.76253 -3.95906
C 2.62979 1.70491 -3.73765
C 1.87734 .42371 -4.02915
C .36350 .42863 -4.03932
C 2.62768 -.88993 -4.01551
C 3.92618 1.62100 -2.93784
C 5.29902 .13122 -1.28762
C 4.46794 .26483 -2.54401
C 3.92318 -.97775 -3.21228
C 3.92831 3.29671 .63854
C 5.30054 1.26528 -.26630
C 4.47076 2.50230 -.52860
C 3.92773 2.75441 -1.91736
C 3.92430 .41259 3.33685
C 5.29979 .64422 1.12769
C 4.46910 1.27689 2.22173
C 3.92750 2.67621 2.03164
C 3.92010 -3.04571 1.42839
C 5.29786 -.87366 .96793
C 4.46522 -1.71821 1.90635
C 3.92254 -1.10428 3.17750
C 3.92157 -2.29860 -2.44983
C 5.29767 -1.19070 -.52484
C 4.46484 -2.34365 -1.03908
C 3.92005 -3.36275 -.06341
