100 

C -3.43595 -3.05180 -.26130
C -4.49223 -2.13635 -.19171
C -4.92191 -1.56458 1.04444
C -2.74830 -3.41870 .95779
C -3.13024 -2.78648 2.14754
C -4.20160 -1.85194 2.20184
C -.95544 -4.42600 -.34714
C -1.40188 -3.98991 .88887
C .97544 -3.93336 1.67002
C -.40321 -3.67930 1.91641
C -.75495 -2.71001 2.92762
C -2.09930 -2.32152 3.06215
C 1.94340 -3.28505 2.49798
C .44699 -4.57184 -.63063
C 2.72046 -4.01930 -.08940
C 1.41450 -4.37583 .35969
C -5.02006 .81336 1.66093
C -4.14109 .52580 2.77883
C -5.38157 -.21012 .78947
C -3.78601 -.76614 3.07051
C -2.43873 -1.04606 3.52604
C -1.43660 -.02689 3.62106
C .22688 -1.82730 3.45676
C 1.56979 -2.22094 3.32039
C -4.96011 1.26928 -1.13292
C -4.68497 2.35592 -.21492
C -5.28170 .01127 -.64216
C -4.62322 2.10549 1.14079
C -1.56105 4.30442 -.73643
C -3.66863 3.19009 -.82293
C -2.65437 3.81170 -.03738
C -.08548 -.42416 3.65411
C -1.78648 1.32519 3.22395
C -3.13278 1.57790 2.85766
C -3.44820 2.55292 1.89682
C .96377 .58102 3.49500
C .63052 1.88172 3.02816
C -.76778 2.22886 2.78899
C -1.10611 3.28059 1.86131
C -2.43987 3.35697 1.32978
C -.04030 4.00058 1.17337
C -.31909 4.57656 -.07325
C -3.78241 -1.03873 -2.30561
C -3.42228 .27773 -2.79849
C -4.68918 -1.14167 -1.24189
C -4.05058 1.38593 -2.22827
C -3.32812 2.63293 -2.07318
C -1.26853 3.83866 -2.06300
C -2.03398 2.81588 -2.62282
C -1.36295 1.71489 -3.28262
C -2.11402 .47874 -3.44158
C -1.42324 -.64780 -3.83507
C -1.85450 -1.98594 -3.46918
C -2.89393 -2.16654 -2.54734
C -2.75081 -3.19514 -1.53932
C -.69950 -2.81593 -3.47520
C -.60636 -3.85769 -2.56891
C -1.61592 -4.00971 -1.57291
C 2.89490 -3.49246 -1.38130
C .67744 -4.16465 -1.98148
C 1.82851 -3.41913 -2.30180
C .46514 -1.98180 -3.72830
C 2.59813 -1.08226 -2.94495
C 1.69906 -2.21591 -3.13518
C 4.51322 -.17170 -1.68759
C 3.78457 -1.28091 -2.11618
C 3.91278 -2.45732 -1.33165
C .77052 .46702 -3.63697
C .00172 -.64934 -3.95385
C 2.83448 3.58353 -1.60815
C 2.25461 2.67484 -2.51959
C 2.90707 1.39305 -2.71844
C 2.14332 .24906 -3.20966
C 4.11727 1.15991 -2.05675
C .07183 1.71058 -3.37115
C .14543 3.89078 -2.25390
C .83875 2.83012 -2.84367
C 5.17926 1.25546 .02788
C 5.13066 -.13017 -.39365
C 4.91690 -1.17745 .51915
C 4.42832 -2.39990 -.02381
C 4.86164 1.57837 1.33694
C 3.64773 3.58039 .58858
C 3.95817 3.22343 -.79106
C 4.63420 2.05351 -1.05492
C 4.00873 2.72223 1.60555
C .68362 4.57131 -1.10276
C 2.34558 4.18239 .60945
C 1.99047 4.40168 -.77134
C 2.64418 -1.25357 3.37832
C 2.34900 .13124 3.45313
C 3.34443 .99906 3.00315
C 3.01171 2.32382 2.56488
C 1.67986 2.74795 2.49327
C 1.34891 3.77208 1.52261
C 3.67773 -3.35687 .78031
C 3.30586 -3.02068 2.05343
C 4.55861 -.83692 1.89466
C 3.71675 -1.73642 2.61042
C 4.46591 .52158 2.24619
