100 

C 3.27818 -3.48404 .44196
C 2.85591 -3.55818 -.89050
C 3.56487 -2.74612 -1.81750
C 2.93604 -2.29045 -3.03848
C 1.67147 -2.69383 -3.33755
C 2.34751 -3.74843 1.52311
C .09832 -3.84928 2.30369
C 1.00826 -4.11590 1.26871
C .52271 -4.18938 -.11555
C 1.46624 -3.94488 -1.18147
C .95808 -3.59318 -2.44546
C 2.63278 1.37519 -3.40493
C 2.37125 .04441 -3.72127
C 3.32546 -.91511 -3.27401
C -.56365 -2.20971 -3.53986
C .71042 -1.74670 -3.88534
C .98524 -.36121 -3.94718
C -1.64836 -1.33912 -3.41459
C -1.42908 .06963 -3.55872
C -.09797 .56461 -3.74437
C .20886 1.94338 -3.33348
C 1.54777 2.32058 -3.23093
C -3.73370 .43694 -2.79278
C -2.49013 .98173 -3.14134
C -3.59461 -3.10932 -.77036
C -2.67113 -2.97622 -1.80367
C -2.81580 -1.84915 -2.71150
C -3.89175 -.98579 -2.55235
C -1.31325 -3.79815 2.05899
C -1.82113 -3.97097 .76178
C -.89213 -4.07346 -.36437
C -1.35679 -3.60900 -1.64553
C -.41667 -3.35894 -2.64128
C -3.13509 -3.50874 .54768
C 4.27773 -.57665 -2.29016
C 3.70381 1.74177 -2.53893
C 4.42885 .75210 -1.83543
C 3.33661 2.98870 -1.91464
C 3.75888 3.25450 -.63916
C .60879 4.46112 .91020
C 2.85201 3.91921 .27888
C 1.55253 4.31260 -.12062
C 1.97884 3.31804 -2.31659
C -.33758 3.72656 -1.69083
C 1.07103 3.93873 -1.45509
C -2.61961 3.79996 -.76650
C -1.27755 4.17305 -.66860
C -.80354 4.45786 .63221
C -3.08504 2.97339 -1.85453
C -.76746 2.74535 -2.64487
C -2.15952 2.30962 -2.66872
C 4.51606 2.25977 .09687
C 4.79084 .98760 -.43567
C 4.89629 -.14216 .48576
C 4.16587 2.42967 1.47622
C 4.18845 1.35460 2.32531
C 4.66524 .09157 1.85518
C 3.08271 3.39049 1.57602
C 1.99772 3.16883 2.46092
C .80780 3.83539 2.16607
C 4.68838 -1.50685 -.00876
C 4.42093 -1.70900 -1.37832
C 4.04665 -.90566 2.70306
C 3.87646 -2.18043 2.24612
C 4.21034 -2.50132 .87711
C .40060 -2.88007 3.30137
C 2.68593 -2.91393 2.61302
C 1.66032 -2.29914 3.38201
C 1.91392 1.92982 3.22454
C 3.06816 1.12207 3.24201
C 2.98307 -.25765 3.47333
C .54337 -.07544 3.75166
C 1.74109 -.88219 3.70245
C .62955 1.33154 3.50998
C -.46220 3.33928 2.62978
C -.59680 2.07840 3.19575
C -2.97933 2.07458 2.38096
C -1.89982 1.40615 3.07591
C -1.98535 .00358 3.32296
C -.76745 -.73531 3.68360
C -.79155 -2.11964 3.57046
C -4.13161 1.34753 2.03116
C -4.21917 -.03509 2.28139
C -3.15292 -.73022 2.88055
C -4.48243 2.64601 -.01812
C -3.39448 3.50150 .39213
C -2.71889 3.28394 1.61725
C -1.46195 3.88097 1.74457
C -4.91310 1.64891 .83132
C -5.30407 .14204 -1.07186
C -4.65466 1.11896 -1.92822
C -4.30750 2.36084 -1.43008
C -5.41152 .39933 .29468
C -4.80056 -1.91655 .81842
C -4.68126 -2.19227 -.59863
C -4.86507 -1.16570 -1.51444
C -5.06548 -.63499 1.24802
C -1.87135 -2.80682 2.91244
C -3.05442 -2.15142 2.58414
C -3.80002 -2.70269 1.50779
