100 

C .05685 4.74361 -.11377
C 1.10243 4.25945 -.92591
C 2.41021 4.01039 -.30256
C 3.38727 3.20905 -.99660
C 4.35909 2.50704 -.26007
C 3.04030 2.68089 -2.29671
C -1.29794 4.54690 -.44936
C -1.67404 3.78699 -1.57925
C -.63238 3.25721 -2.41133
C .73584 3.57476 -2.12550
C 1.75921 2.82949 -2.80871
C -2.21065 1.60486 -3.30191
C -.92478 2.08062 -3.24884
C -3.27394 2.15665 -2.49294
C -3.00841 3.18283 -1.58143
C -3.79608 3.20116 -.39513
C 3.56438 1.39465 -2.74334
C 4.47282 .65288 -1.94369
C 4.89165 1.21960 -.71105
C 4.41494 -.76133 -2.04212
C 2.54495 .73800 -3.46913
C 2.34415 -.66419 -3.39306
C 3.37319 -1.39896 -2.79140
C 1.78862 -3.25460 -2.25173
C 3.10016 -2.67133 -2.18266
C 1.50685 -4.23454 -1.29562
C .14172 1.15374 -3.63814
C 1.43143 1.61924 -3.54323
C -.63841 -2.93536 -2.61784
C -2.49312 .19917 -3.52488
C -1.46130 -.76238 -3.54220
C -.09253 -.29527 -3.65776
C .97843 -1.19375 -3.43915
C .70517 -2.53423 -2.88269
C 4.71508 -1.59397 -.92684
C 4.94473 -1.02362 .34373
C 5.07156 .38967 .42530
C 4.39874 -1.69760 1.49373
C 3.92210 -2.81030 -1.06305
C 2.30157 -4.32193 -.06862
C 3.45379 -3.53057 .09313
C 3.69241 -2.96597 1.36654
C 3.77290 -.96192 2.50437
C 3.77350 .45849 2.52104
C 4.58949 1.10613 1.58545
C 4.28664 2.45066 1.16087
C 3.32356 3.17351 1.82808
C 2.62319 -1.69896 2.97816
C 1.42545 -1.07645 3.31871
C 1.38466 .39177 3.37689
C 2.59682 1.13553 3.06420
C 2.50178 2.51038 2.83711
C -1.07939 -1.16849 3.32551
C -1.12789 .27753 3.38852
C .12331 1.05732 3.40309
C .06183 2.47893 3.13851
C 1.25353 3.17182 2.88171
C -3.52394 .17848 2.83469
C -2.36522 .94932 3.12424
C -.95462 -3.84809 2.34461
C .25510 -3.19224 2.73393
C .19913 -1.85395 3.23373
C -2.17946 -3.22276 2.46528
C -2.26977 -1.89887 2.99757
C -3.46645 -1.20775 2.72481
C 2.65805 -2.98049 2.33713
C 1.41606 -4.55773 1.01153
C 1.48087 -3.71805 2.15790
C .15794 4.68861 1.33806
C 2.49884 4.08485 1.10764
C 1.30878 4.25064 1.91140
C -1.17754 3.10723 2.70005
C -1.10442 4.24773 1.86828
C -2.39285 2.34778 2.70503
C -2.04126 4.41417 .80527
C -3.22070 3.72490 .83890
C -3.46018 2.79421 1.89410
C -4.93149 -.48939 1.06151
C -4.53831 .63120 1.90180
C -4.46171 1.88596 1.38957
C -4.69800 -1.46063 -1.14789
C -5.01385 -.33751 -.36855
C -3.02346 -3.62765 1.32336
C -4.22468 -2.67612 -.55196
C -4.04458 -2.76743 .84204
C -4.37514 -1.63321 1.63770
C .13114 -4.90153 .43340
C -3.23731 -3.24452 -1.42955
C -2.19909 -4.02886 -.95093
C -2.23411 -4.37498 .44307
C -1.00614 -4.67472 1.14226
C -3.75550 -.06532 -2.93602
C -4.01803 -1.32337 -2.42913
C -3.03310 -2.34017 -2.53945
C -1.73653 -2.07578 -3.03500
C -.90774 -3.97644 -1.63793
C .17270 -4.58218 -.98957
C -4.61214 2.10160 -.05264
C -4.79494 1.00346 -.93672
C -4.20171 1.11612 -2.21256
