100 

C -3.46579 2.78650 1.44325
C -4.45745 2.16451 .64651
C -4.95117 .83577 .93673
C -2.93987 2.05214 2.59382
C -3.50148 .79288 2.88908
C -4.51638 .18297 2.05799
C -.95399 3.49152 2.59459
C -1.61724 2.31370 3.07575
C .64960 1.43830 3.69931
C -.80948 1.26924 3.63504
C -1.35709 -.05336 3.73578
C -2.70679 -.24287 3.41661
C 1.42506 .32628 3.93888
C 1.30913 2.59875 3.09225
C 2.65719 2.46457 2.53435
C .49318 3.62381 2.63068
C 3.03265 3.31469 1.49255
C -3.67870 -3.17800 .71617
C -4.43925 -1.99547 .82849
C -4.26942 -1.24852 2.02205
C -3.18429 -1.51177 2.89083
C .86365 -1.00623 3.94186
C -.48826 -1.22579 3.72502
C -.89070 -2.45493 3.07618
C -2.29334 -2.58149 2.66306
C -2.64483 -3.47997 1.64366
C -4.81404 -1.28218 -.39607
C -5.07615 .10194 -.32057
C -3.26112 -3.69885 -.57553
C -3.52034 -2.98000 -1.71141
C -4.31986 -1.76997 -1.63503
C -1.96388 -4.32677 -.40754
C -.95090 -4.21807 -1.39803
C .35808 -4.46745 -.97076
C 1.85532 -1.91655 3.49918
C 1.51509 -3.00280 2.68341
C .10851 -3.30288 2.49516
C -.27234 -4.18360 1.38159
C -1.61661 -4.23246 .95872
C .68615 -4.52330 .41408
C -3.81024 -.87683 -2.60033
C -3.90254 .51633 -2.44422
C -4.68992 .98469 -1.36498
C -4.42953 2.28636 -.77438
C -3.51184 3.12706 -1.37268
C -2.63865 -1.48357 -3.21580
C -1.53539 -.70072 -3.64728
C -1.62079 .73565 -3.55723
C -2.82041 1.35372 -2.96963
C -2.72197 2.65479 -2.49458
C .76835 .83790 -4.01351
C -.41271 1.50336 -3.64934
C -1.14752 -3.32202 -2.52152
C -2.45635 -2.75782 -2.68330
C 1.48644 -3.93637 -1.67436
C 1.32867 -3.00298 -2.68973
C -.03692 -2.65128 -3.10432
C -.26509 -1.36308 -3.74117
C .84473 -.57288 -4.05645
C -1.42582 4.17754 1.48275
C -2.64045 3.78816 .82414
C -2.68477 3.95968 -.57283
C -.27033 2.78018 -2.97507
C -1.45911 3.35288 -2.44465
C -1.44517 4.17292 -1.31642
C .99085 3.20873 -2.46644
C -.22022 4.49633 -.66942
C -.27595 4.68458 .73187
C 2.06045 1.35743 -3.67163
C 2.19534 2.45930 -2.82730
C 1.01684 4.09073 -1.29581
C 2.18149 4.12641 -.50535
C 2.10399 4.23874 .91195
C .87253 4.44965 1.52335
C 5.04065 -.45653 -.82640
C 4.87801 .98219 -.73910
C 4.54870 1.60216 .48930
C 3.88026 2.83441 .41144
C 4.96474 -1.21131 .31132
C 3.33247 3.29692 -.80702
C 3.38386 2.51043 -1.97060
C 4.28640 1.42264 -1.95480
C 2.96912 .22557 -3.62067
C 4.42091 -.91773 -2.05484
C 4.06466 .25289 -2.78856
C 2.58175 -3.84526 -.72643
C 4.29634 -2.49550 .27117
C 3.63410 -2.92944 -.90059
C 3.61846 -2.07680 -2.08240
C 2.45623 -2.09923 -2.95946
C 2.20028 -.96999 -3.73993
C 3.08787 -1.16388 3.32209
C 4.01155 -1.56259 2.38204
C 3.72259 -2.72414 1.55579
C 2.51569 -3.44256 1.69796
C 2.06964 -4.13917 .55660
C 4.36106 .78498 1.68606
C 3.38686 1.20249 2.68391
C 2.80599 .22389 3.49604
C 4.68314 -.58321 1.59186
