100 

C .26589 4.83645 -.71831
C -.76112 4.20704 -1.44875
C -2.04661 4.02946 -.80524
C -3.01639 3.10763 -1.37594
C -4.10998 2.72119 -.57717
C -4.85090 1.51545 -.82418
C -2.60983 2.22175 -2.45780
C -3.38680 1.08929 -2.71464
C -4.53937 .74157 -1.92522
C 1.65475 4.60487 -1.01370
C -.38388 3.33097 -2.55217
C -1.24301 2.22546 -2.93664
C 1.99971 3.89277 -2.12883
C .95997 3.26746 -2.91409
C 3.58758 2.76081 1.54218
C 3.39826 3.38848 .29681
C 2.36671 4.35428 .22821
C -5.12164 -.51266 .54736
C -4.96514 -1.33004 -.65379
C -5.08187 .85991 .46253
C -4.61047 -.70937 -1.84623
C -3.52216 -1.24067 -2.60501
C -4.31778 -2.54600 -.27525
C -3.31406 -3.13145 -1.06671
C -2.86806 -2.41731 -2.25218
C 1.52031 2.08856 -3.50522
C .75763 .93198 -3.67749
C -.66696 1.02199 -3.45919
C -1.42668 -.21024 -3.44448
C -2.77959 -.12996 -3.16424
C .66255 -1.59113 -3.40804
C -.76681 -1.51410 -3.32320
C -1.51056 -2.60575 -2.75648
C -.81379 -3.73694 -2.30422
C -3.16481 -3.20991 1.77685
C -4.45132 -1.16556 1.63255
C -4.15989 -2.50299 1.17618
C -2.36367 -4.13342 1.00438
C -1.23706 -4.44899 -1.09782
C -2.39878 -4.06776 -.41620
C -2.31245 -2.56174 2.74897
C -2.38621 -1.17547 2.99520
C -3.54717 -.46657 2.46309
C -3.52340 .96815 2.38662
C -4.39427 1.60318 1.47420
C -4.02516 2.85677 .86124
C -2.34775 1.69527 2.86441
C -2.23856 3.04873 2.49879
C -3.02828 3.59876 1.41017
C -1.08039 -3.24137 2.72734
C .08563 1.70147 3.36010
C 1.30491 -.48879 3.61293
C .10387 -2.60060 3.07415
C .04886 -1.20788 3.46271
C -1.18062 -.47659 3.36064
C -1.16006 .99881 3.30302
C 2.50411 -1.18815 3.40949
C 2.45224 -4.27010 .68304
C 1.32848 -4.18506 1.52199
C 1.34872 -3.21338 2.60807
C 2.52434 -2.52305 2.85503
C -1.12370 -4.25455 1.67054
C -.07403 -4.87291 -.40685
C .04631 -4.62118 .98479
C .17665 4.94391 .71288
C -2.16588 4.36981 .55820
C -.99608 4.63317 1.34163
C 1.43204 4.50793 1.28926
C 2.59214 2.84063 2.54708
C 1.43626 3.60621 2.37821
C 1.32819 .95483 3.55217
C .17453 3.07345 2.89464
C -.99377 3.71401 2.47984
C 2.54775 1.58526 3.25930
C 4.29178 -1.31832 1.90681
C 3.68437 -.52644 2.93578
C 3.68917 .84272 2.83004
C 4.64629 -.74219 .67325
C 4.59223 .71762 .53677
C 4.23319 1.46798 1.65742
C 4.02714 -2.90514 -.40271
C 3.59794 -3.43629 .88206
C 3.66580 -2.62550 1.98878
C 4.33974 -.95284 -1.76175
C 4.52064 -1.58290 -.51839
C 1.04850 -4.62547 -1.28115
C 3.42997 -1.48069 -2.71491
C 2.73779 -2.67407 -2.48593
C 3.18587 -3.46619 -1.40146
C 2.28738 -4.40256 -.75231
C 2.90748 2.02515 -3.11290
C 3.52134 .80189 -3.02697
C 2.80472 -.38304 -3.41188
C 1.42893 -.36416 -3.65160
C 1.34688 -2.75883 -2.92225
C .58064 -3.82372 -2.40287
C 4.40558 1.34089 -.78834
C 3.80565 2.67047 -.90861
C 3.15392 3.01288 -2.11088
C 4.34465 .49207 -1.89668
