100 

C -1.01185 -2.80071 -3.45663
C .06931 -1.96882 -3.79736
C 1.37497 -2.16715 -3.16636
C 2.33095 -1.06987 -3.20951
C 3.49926 -1.18946 -2.46795
C -.25866 -.70742 -4.32229
C -1.57507 -.19536 -4.22443
C -2.60440 -.92843 -3.61590
C -2.34066 -2.30260 -3.40078
C .66353 .40933 -4.24276
C 1.93691 .27128 -3.61801
C 3.69726 1.24777 -2.15908
C 4.21251 -.03699 -1.98826
C 4.94978 -.43927 -.79987
C 5.09622 .44900 .24671
C 1.79398 2.68155 -2.99346
C 2.54625 1.42401 -3.03945
C 2.14982 3.64583 -2.02306
C 3.15122 3.35177 -1.01716
C 3.96993 2.22424 -1.10526
C 4.56849 1.78968 .10599
C -.07392 1.58444 -4.16559
C -.49145 3.62218 -2.95913
C .45461 2.73695 -3.51849
C -4.27191 -1.00032 -1.82456
C -3.53807 -.22303 -2.73650
C -3.35119 1.17953 -2.44824
C -2.34343 1.91682 -3.22224
C -1.48611 1.22970 -4.06873
C -1.87114 3.19194 -2.74830
C 4.47685 -2.27427 .75867
C 4.51988 -1.32256 1.85053
C 4.63710 -1.83138 -.53776
C 4.82511 .01015 1.60078
C 4.07200 1.03220 2.24798
C 3.45871 -1.63910 2.74666
C 2.67845 -.65114 3.35257
C 2.99832 .74158 3.09261
C 2.67393 3.81608 .23777
C 2.93739 3.09306 1.40851
C 4.00173 2.17070 1.34729
C 1.87802 2.91464 2.39012
C 1.96818 1.76937 3.26975
C .84072 1.40045 3.99297
C 1.41204 -4.35476 .42462
C 2.61696 -3.78097 .01724
C 3.42525 -3.22856 1.04920
C 2.84707 -2.87817 2.29165
C .52862 .00478 4.25790
C 1.32997 -1.01845 3.79938
C .69360 -2.26521 3.35476
C 1.49875 -3.18537 2.58264
C .86504 -4.08631 1.71270
C 2.70525 -3.21673 -1.33595
C 3.71267 -2.28009 -1.57045
C .31656 -4.54845 -.49630
C .37301 -4.01474 -1.80744
C 1.53880 -3.21128 -2.20464
C -.85944 -3.81764 -2.44267
C -.88466 -4.51314 .24507
C -2.10388 -4.13007 -.34512
C -2.09640 -3.94298 -1.74431
C -3.98873 -2.41927 -1.61779
C -3.03608 -3.04408 -2.37274
C -3.46116 -2.01586 2.43346
C -2.72058 -3.02931 1.82861
C -3.08067 -3.42535 .47220
C -4.08516 -2.69740 -.19966
C -.89405 -.12206 4.32731
C -1.53956 -1.28306 3.83636
C -.73369 -2.36341 3.29423
C -1.36915 -3.29193 2.35098
C -.55645 -4.13347 1.60862
C -2.87803 -1.13808 3.42553
C -4.35634 .11715 2.14217
C -4.43580 -1.25775 1.71102
C -4.68855 -1.54858 .39209
C -3.74984 2.38147 1.60725
C -4.37325 1.16755 1.20825
C -1.46009 1.16678 4.16760
C -2.94487 2.46962 2.75601
C -2.73046 1.32304 3.57651
C -3.46719 .15401 3.27465
C 1.40123 4.45311 .02325
C .36310 4.31915 .94125
C .61240 3.56851 2.18726
C -1.86721 3.40806 2.48754
C -.52284 3.15904 2.97190
C -.37657 2.10702 3.88692
C -1.22586 4.48125 -.94784
C -.13953 4.46392 -1.87856
C 1.16781 4.46514 -1.40175
C -2.08344 3.95758 1.23062
C -.99759 4.43992 .42923
C -4.71174 -.46898 -.59154
C -4.44754 .86168 -.22698
C -3.80962 1.72234 -1.19535
C -3.22451 3.28986 .62985
C -3.26248 3.00389 -.72947
C -2.31405 3.71303 -1.54215
