100 

C -2.42852 -3.33149 -2.30569
C -2.27268 -3.68969 -.94950
C -3.25773 -3.20440 .00087
C -2.90532 -3.09462 1.40234
C -3.67790 -2.23511 2.21158
C -3.09995 -1.53896 3.33182
C -1.54947 -3.43034 1.84265
C -1.10725 -2.88795 3.06239
C -1.84416 -1.85514 3.74448
C -1.28456 -3.16009 -3.15611
C -.94742 -4.09490 -.48895
C -.55052 -3.89260 .90777
C -.07989 -3.66139 -2.76684
C .05920 -4.22710 -1.44882
C -1.33679 -1.85108 -3.76460
C -.20018 -1.02973 -3.82529
C -.39063 .39569 -3.76905
C -2.81482 2.11882 2.89982
C -2.56845 .89193 3.52395
C -3.51350 -.14457 3.29274
C .37538 -1.32299 3.95933
C -.91225 -.80772 4.13831
C -1.18939 .55535 3.88108
C 1.46643 -.48886 3.70305
C 1.24073 .91279 3.51485
C -.09819 1.42151 3.51991
C -.38470 2.66384 2.78506
C -1.71612 2.99567 2.53871
C 3.58231 1.12408 2.80153
C 2.32144 1.71753 2.95091
C 3.54769 -2.78616 1.63105
C 2.56312 -2.42727 2.54568
C 2.66663 -1.12981 3.19148
C 3.75370 -.31402 2.90350
C 1.44791 -4.13017 -1.11091
C 1.85525 -3.96863 .21654
C .84576 -3.78628 1.24545
C 1.24941 -3.07444 2.43999
C .26394 -2.62586 3.29867
C 3.16935 -3.48132 .41323
C -4.49378 -.02349 2.28023
C -3.86000 2.27916 1.95247
C -4.62554 1.16829 1.52452
C -3.45004 3.32451 1.03142
C -3.80770 3.24871 -.28974
C -.58215 4.04283 -1.94768
C -2.84364 3.62276 -1.30287
C -1.57050 4.14609 -.96138
C -2.10333 3.73965 1.39231
C .23971 4.00673 .79036
C -1.15565 4.13557 .44526
C 2.56360 3.89539 -.01411
C 1.22676 4.20725 -.26436
C .81488 4.15398 -1.61689
C 2.97631 3.35996 1.26205
C .62335 3.29013 1.97092
C 2.01304 2.89277 2.16405
C -4.65000 -1.33800 1.65530
C -4.54397 2.09266 -.77220
C -4.97283 1.06531 .10347
C -5.14859 -.21672 -.46599
C -4.97022 -1.43093 .32705
C -4.03864 1.78181 -2.05803
C -3.99382 .46364 -2.53713
C -4.70511 -.50156 -1.78366
C -4.31738 -1.89842 -1.82313
C -3.35329 -2.30578 -2.69813
C -2.98172 2.71880 -2.38225
C -.70958 3.10221 -3.00797
C -1.85645 2.31401 -3.13784
C -1.71098 .93079 -3.56073
C -2.84341 .04182 -3.35369
C -2.63389 -1.32469 -3.50578
C -4.33237 -2.42747 -.48490
C 4.47296 2.63410 -.37061
C 3.40202 3.34489 -1.02814
C 2.79811 2.83143 -2.20021
C 1.53829 3.34639 -2.52396
C 4.96319 1.47695 -.93740
C 5.24677 .46135 1.28336
C 4.54723 1.60071 1.85127
C 4.22272 2.68553 1.05769
C 5.43667 .39646 -.09647
C 4.86828 -1.98881 -.10388
C 4.65194 -1.92761 1.32641
C 4.78303 -.71511 1.99042
C 5.16184 -.83827 -.80256
C 2.11637 -3.41006 -2.15111
C 3.26377 -2.67079 -1.89436
C 3.91324 -2.92847 -.65453
C .59271 2.57795 -3.29642
C .79256 1.23416 -3.57238
C 3.12736 1.48829 -2.65485
C 2.11103 .65000 -3.25338
C 2.25354 -.77041 -3.19712
C 1.09974 -1.61803 -3.51103
C 1.12716 -2.95095 -3.08949
C 4.26552 .89066 -2.08112
C 4.38847 -.51078 -2.00299
C 3.38444 -1.35393 -2.50888
