100 

C -3.83466 2.41944 -2.15594
C -2.74961 2.45517 -3.12276
C -4.60435 1.27264 -2.01317
C -2.44195 1.32447 -3.85439
C -1.06031 .96427 -4.03856
C 2.35795 1.90050 -2.84479
C 3.59899 1.28738 -2.68203
C 1.28377 1.11567 -3.41490
C -.00896 1.74383 -3.55918
C -.32701 2.93303 -2.77943
C -1.67707 3.23493 -2.55828
C .19837 -1.10481 -3.60154
C -.96974 -.46959 -3.97359
C 3.66771 -2.71245 -1.75800
C 2.60236 -2.30085 -2.58058
C 2.63169 -.94416 -3.09534
C 1.40083 -.30013 -3.49429
C 3.74008 -.13803 -2.82101
C .09806 -2.39653 -2.94443
C 1.21672 -4.05103 -1.55278
C 1.32015 -3.00230 -2.46809
C -4.59190 1.54143 .45074
C -3.75217 2.71957 .29874
C -5.01883 .86451 -.71122
C -3.41902 3.13791 -.99469
C -1.64298 3.88371 1.10266
C -2.88007 3.16002 1.39432
C -2.98244 2.49786 2.61988
C -.66877 3.96579 2.09546
C -.73554 3.15324 3.27384
C -1.86081 2.39840 3.50597
C -2.10887 3.71139 -1.28311
C .20874 4.04397 -.63271
C -1.20133 4.03000 -.28987
C 2.52352 3.95592 .19945
C 1.17178 4.22162 .43675
C .73346 4.12190 1.77534
C 2.03989 3.06861 -2.03630
C .64451 3.46106 -1.86022
C 2.97428 3.48351 -1.08706
C -5.10936 -.59089 -.73999
C -3.71218 1.25107 2.73593
C -4.51971 .77036 1.69326
C -4.75070 -.62541 1.67014
C -5.00470 -1.31202 .41444
C -2.93448 .36793 3.52893
C -2.71928 -3.50938 1.99433
C -4.29468 -2.56105 .41582
C -3.82381 -2.74346 1.76091
C .21438 -4.71403 .42384
C -.75937 -4.47698 1.34412
C -1.71442 1.03895 3.91609
C -2.95394 -1.01104 3.31571
C -3.99516 -1.50328 2.49080
C -.45684 -3.63650 2.49164
C .55248 2.58458 3.50607
C .71491 1.19964 3.68216
C -.46740 .39251 3.87813
C -.42937 -1.04393 3.60462
C -1.69151 -1.74678 3.43050
C -1.66917 -3.03699 2.89684
C .77428 -2.96886 2.60416
C .79896 -1.64413 3.18175
C -2.09491 -4.19113 .89984
C -2.34655 -3.78788 -.42866
C -3.49405 -2.94144 -.68068
C -3.54602 -2.13733 -1.89134
C -4.46951 -1.07265 -1.94080
C -4.26697 .07657 -2.78032
C -2.38100 -2.08285 -2.76732
C -2.26360 -.99910 -3.64122
C -3.19402 .09822 -3.64530
C -.03830 -4.39708 -.96780
C -1.17721 -2.84037 -2.45692
C -1.23247 -3.80042 -1.37311
C 3.02708 1.44325 2.73707
C 1.96947 .58144 3.25130
C 2.01937 -.82368 3.02516
C 4.15222 .86042 2.15979
C 4.23879 -.54735 1.99471
C 3.17277 -1.39108 2.34800
C 3.07831 -2.66953 1.65683
C 1.86468 -3.44187 1.75899
C 1.57502 -4.36649 .73514
C 4.43436 2.68563 .54819
C 3.34915 3.37041 1.20674
C 2.73074 2.81839 2.35031
C 1.47617 3.33756 2.68631
C 4.90336 1.50044 1.08129
C 5.24772 .58353 -1.17196
C 4.55915 1.73873 -1.70534
C 4.21916 2.79313 -.87993
C 5.40205 .46072 .21083
C 4.86712 -1.92884 .09253
C 4.70832 -1.80725 -1.35139
C 4.79865 -.56329 -1.93957
C 5.09235 -.80369 .84940
C 2.22821 -4.23591 -.53349
C 3.93347 -2.91726 .56307
C 3.40463 -3.55563 -.61433
