100 

C -2.60221 2.87640 -2.06930
C -3.64495 1.93605 -2.13943
C -.18980 4.24804 -1.43388
C -.17039 3.37656 -2.50655
C -1.40221 2.63234 -2.83529
C -1.29685 1.42413 -3.58579
C -.02952 1.08532 -4.15661
C 2.31765 3.10872 -2.11947
C 1.13875 2.89702 -2.94991
C 1.16252 1.86221 -3.88274
C 3.42349 2.27245 -2.29310
C 3.40216 1.18016 -3.22292
C 2.28167 .98697 -4.01424
C 2.18564 3.78792 -.83914
C 3.00346 3.38626 .29041
C .97871 4.45457 -.59532
C 2.51382 3.63444 1.58400
C -2.25707 .36298 -3.42397
C -3.44496 .67252 -2.76470
C -4.20253 -.32789 -2.06577
C .34145 -.23553 -4.37678
C -.52401 -1.32400 -4.00838
C -1.85235 -1.03463 -3.50285
C -2.54683 -2.01724 -2.72565
C -3.72023 -1.62789 -1.94100
C -1.86316 -3.25529 -2.38022
C -2.22885 -3.96163 -1.21090
C .10087 -2.52246 -3.67330
C -.54785 -3.46760 -2.83541
C 1.52565 -2.57184 -3.37251
C 2.36867 -1.43122 -3.57758
C 1.79114 -.33430 -4.23198
C -4.95093 .34178 -1.01645
C -3.29389 -3.47364 -.35664
C -4.05851 -2.35061 -.71406
C -4.66636 -1.64579 .35398
C -5.13053 -.28968 .19750
C -1.70337 -4.47187 .97339
C -2.93719 -3.72469 .98971
C -3.16589 -2.72469 1.97165
C -4.12129 -1.75967 1.66317
C -.78789 -4.27604 1.96918
C .44342 -4.05008 -1.99570
C .13419 -4.48805 -.70610
C -1.24913 -4.57807 -.39106
C -4.45765 2.46948 .10834
C -4.49437 1.77227 1.38482
C -4.60440 1.75232 -1.06132
C -4.82039 .42336 1.42829
C -4.07909 -.44209 2.27194
C -2.93533 -.00545 2.97990
C -2.10982 -2.38486 2.92091
C -1.02900 -3.26135 2.98496
C -1.35981 4.39705 -.60039
C -2.56153 3.74458 -.90198
C -3.42288 3.47306 .19416
C -2.87660 3.40970 1.50111
C -1.58345 3.85937 1.77563
C -.93007 4.57242 .74180
C 1.23552 4.21814 1.80175
C .50952 4.69115 .72692
C -1.25071 1.83593 3.27597
C -.79396 3.14378 2.77832
C 2.10924 .31301 3.96843
C 1.09120 1.28784 3.86950
C 1.50233 2.53673 3.37864
C .55811 3.45848 2.84554
C -1.92366 -.99139 3.34859
C -2.60116 1.39197 2.93896
C -3.43144 2.25673 2.18867
C .23825 -2.82760 3.45654
C .42818 -1.51692 3.90758
C -.65203 -.54666 3.79524
C -.31167 .89339 3.76511
C 1.77905 -1.09014 3.97293
C 3.82392 -.83702 2.95233
C 3.36223 .47660 3.33735
C 3.61261 1.60960 2.51472
C 2.72975 2.67893 2.65446
C 4.50301 -.99746 1.77637
C 1.26254 -3.49572 2.69310
C 2.50316 -2.90905 2.49010
C 2.81065 -1.79562 3.32901
C 1.71273 -3.43292 -2.29677
C 2.68219 -3.16239 -1.26522
C 2.38975 -3.59391 .07703
C 1.11380 -4.28223 .35987
C .62962 -4.27873 1.66861
C 4.16282 -2.10297 .88040
C 3.11794 -3.00612 1.17083
C 4.70486 .53854 -1.42619
C 4.05985 .05099 -2.62850
C 3.49022 -1.23511 -2.68451
C 4.93841 -.31621 -.38021
C 4.42662 -1.67936 -.43994
C 3.64359 -2.12668 -1.52137
C 4.31767 1.43756 1.24642
C 3.99461 2.32060 .12976
C 4.25302 1.87444 -1.16674
C 4.83301 .15973 .96287
