100 

C -2.64151 -.67860 -3.69381
C -2.96991 -1.85145 -2.97895
C -4.07047 -1.75536 -2.10195
C -4.16024 -2.60036 -.92588
C -3.19054 -3.54746 -.70923
C -1.31130 -.47859 -4.21828
C 1.02428 -.95064 -4.16180
C -.29021 -1.42675 -4.01301
C -.53214 -2.59675 -3.18231
C -1.91212 -2.84266 -2.72396
C -2.11173 -3.72052 -1.66268
C -4.04130 -1.89711 1.44173
C -2.97603 -2.87004 1.65688
C -4.64905 -1.82860 .17079
C -2.65790 -3.72905 .60403
C -1.32421 -4.26310 .44774
C .99671 -4.25365 .97627
C -.32482 -4.05594 1.41180
C -.58305 -3.18494 2.54492
C -1.94498 -2.64216 2.69105
C -2.13393 -1.57063 3.54539
C 2.12934 -1.60535 -3.53357
C 1.94007 -2.66865 -2.66910
C .57787 -3.20938 -2.51760
C .31896 -4.06949 -1.37631
C -1.00283 -4.26235 -.93884
C 1.31816 -4.26771 -.41034
C -5.08541 -.56337 -.38801
C -3.16806 -.57561 3.32502
C -4.10315 -.70480 2.27803
C -4.64184 .49168 1.75940
C -5.08545 .56610 .38071
C -1.31349 .47964 4.21399
C -2.64329 .68016 3.68820
C -2.97106 1.85311 2.97320
C -4.07117 1.75745 2.09538
C 1.02227 .95089 4.15901
C -.29202 1.42744 4.00935
C .28579 -1.38874 4.02352
C -1.02863 -.91070 4.16744
C 4.06572 -1.73647 2.11513
C 2.96543 -1.82398 2.99310
C 2.63739 -.64420 3.69642
C 1.30727 -.43891 4.21921
C .52729 -2.56655 3.20393
C 2.10589 -3.70511 1.69486
C 1.90712 -2.81722 2.74775
C -3.18952 3.54890 .70319
C -4.64820 1.83097 -.17794
C -4.16000 2.60227 .91907
C -1.91272 2.84386 2.71906
C -2.11137 3.72163 1.65753
C -.53320 2.59748 3.17841
C -2.65601 3.73044 -.60968
C -2.97400 2.87176 -1.66301
C -4.04010 1.89933 -1.44870
C -4.10194 .70704 -2.28492
C -4.64116 -.48929 -1.76635
C -3.16633 .57745 -3.33116
C -1.32233 4.26403 -.45225
C .99886 4.25379 -.97908
C -.32245 4.05672 -1.41563
C -.58036 3.18592 -2.54904
C -1.94246 2.64352 -2.69630
C -2.13157 1.57204 -3.55065
C 2.12796 1.60518 3.53154
C 1.93946 2.66852 2.66692
C .57748 3.20970 2.51451
C .31956 4.06986 1.37303
C -1.00184 4.26313 .93456
C 1.31944 4.26777 .40772
C 2.10834 3.70511 -1.69702
C 1.90983 2.81739 -2.75015
C .53021 2.56717 -3.20710
C .28855 1.38931 -4.02660
C -1.02596 .91168 -4.17157
C 1.30971 .43906 -4.22175
C 3.18657 3.54098 -.74106
C 4.15665 2.59186 -.94797
C 4.06765 1.73572 -2.11597
C 2.96783 1.82354 -2.99450
C 2.63959 .64385 -3.69795
C 4.03673 1.91185 1.42633
C 2.97106 2.88655 1.63130
C 2.65315 3.73523 .57001
C 4.64508 1.83101 .15634
C 5.08092 -.56145 .38972
C 4.63672 -.47384 1.76727
C 4.09803 .72756 2.27405
C 3.16243 .60822 3.32151
C 5.08170 .56046 -.39000
C 3.18481 -3.54137 .73960
C 4.64414 -1.83176 -.15690
C 4.15515 -2.59259 .94704
C 3.16398 -.60873 -3.32298
C 4.63803 .47290 -1.76777
C 4.09906 -.72830 -2.27485
C 4.03689 -1.91252 -1.42724
C 2.97099 -2.88693 -1.63285
C 2.65214 -3.73551 -.57177
