100 

C 2.38034 -.69473 3.73758
C 3.43384 -1.07957 2.86839
C 4.25696 -.04195 2.40053
C 5.05218 -.18917 1.20861
C 4.97919 -1.37261 .49827
C 1.22403 -1.54247 3.93143
C -.27704 -3.17039 3.03729
C 1.04333 -2.70491 3.15164
C 2.00943 -3.04807 2.11752
C 3.27318 -2.29521 2.06914
C 4.08577 -2.42407 .94392
C 5.01325 1.10624 -.87070
C 4.89925 -.12964 -1.61496
C 5.05847 1.08074 .51262
C 4.93112 -1.33987 -.94806
C 4.06184 -2.39905 -1.38667
C 3.17972 -2.21569 -2.46693
C 2.11432 -3.12839 -2.55897
C -.70038 -3.93535 1.90213
C .14830 -4.17441 .83917
C 1.56302 -3.78469 .97721
C 2.38293 -3.78140 -.21779
C 3.60713 -3.10907 -.22188
C 1.76390 -3.96130 -1.48175
C 2.42839 3.70131 -1.47166
C 3.49116 3.06348 -.79056
C 4.18956 2.09150 -1.52299
C 3.00041 -.89176 -3.04861
C 3.92244 .08094 -2.66981
C 3.55228 1.45904 -2.65227
C 1.67150 -.47420 -3.53109
C 2.29736 1.87442 -3.10155
C 1.87449 3.14512 -2.63192
C 3.41685 2.95726 .66370
C 4.23014 2.00093 1.27016
C 1.38278 4.39925 -.75787
C 1.24426 4.23002 .62683
C 2.20085 3.39657 1.35657
C -.05748 4.41066 1.16450
C .22729 4.40980 -1.60173
C -2.11772 3.86420 -1.78311
C -1.07376 4.50431 -1.06374
C -1.19091 4.61018 .35441
C -1.13418 .31933 -3.62472
C -.47409 2.66923 -3.19927
C .49865 3.54852 -2.71147
C -2.51399 .64832 -3.20994
C -2.81063 1.94411 -2.84074
C -1.80885 2.95847 -2.82160
C -.11385 1.30005 -3.57782
C .91945 -2.81136 -3.31237
C .62424 -1.48035 -3.66965
C 1.31014 .89628 -3.53364
C -.76243 -1.08318 -3.73651
C -1.75117 -2.05388 -3.49771
C -.47372 3.67252 2.32689
C .35661 2.77803 2.95437
C 1.77001 2.71730 2.53093
C 2.58906 1.65515 3.07058
C 3.79846 1.32366 2.45682
C 1.97838 .64130 3.85771
C -1.90735 3.46761 2.23911
C -3.73296 1.89706 2.21253
C -2.52005 2.29025 2.77807
C -1.69945 1.31526 3.45666
C -.27649 1.63914 3.66062
C .55518 .65239 4.13334
C -3.32896 3.39030 -1.11426
C -3.43967 3.45598 .31293
C -2.34939 4.03910 1.04518
C -4.18230 2.45790 .95268
C -4.16862 .54076 2.28306
C -3.38952 -.44483 2.89108
C -2.15226 -.03863 3.55238
C -1.19865 -1.07603 3.92582
C .12086 -.71063 4.24395
C -1.38378 -2.39932 3.48383
C -4.94475 .27683 1.08665
C -4.98866 -.98697 .56383
C -4.33459 -2.07195 1.26457
C -3.55178 -1.82250 2.41005
C -2.53243 -2.76107 2.68485
C -3.78608 2.25985 -1.80425
C -4.51252 1.22563 -1.15350
C -4.82407 1.41293 .20691
C -3.46599 -2.77977 -2.09148
C -3.05896 -1.71404 -2.96519
C -3.43292 -.39937 -2.74148
C -4.27559 -2.50291 -1.01813
C -4.81272 -1.18611 -.85784
C -4.40252 -.12343 -1.68409
C -.09171 -3.68789 -2.83867
C -2.35503 -3.69856 -1.95335
C -1.41640 -3.34003 -2.98008
C -2.12727 -3.71461 1.73232
C -3.91973 -3.03019 .28778
C -2.74134 -3.78327 .46276
C -1.90717 -4.11422 -.68863
C -.47131 -4.35651 -.49360
C .35836 -4.27572 -1.60391
