100 

C .97003 4.42430 -.31435
C 1.42170 3.89826 .90072
C 2.76249 3.33087 .94111
C 3.13857 2.43490 2.02634
C 4.27731 1.61677 1.86074
C 4.42773 .37374 2.55816
C 2.13502 2.03471 2.99021
C 2.35573 .86444 3.72941
C 3.48253 .00951 3.49979
C -.28357 1.79271 3.53971
C -1.60948 2.18069 3.35587
C -.97343 3.81797 1.66132
C .41762 3.51831 1.90651
C .76345 2.54037 2.89650
C -1.95689 3.21245 2.47262
C -.43559 4.48574 -.63078
C -2.69987 3.92033 -.12043
C -1.40972 4.27451 .34853
C 4.48528 -1.91921 1.68381
C 3.50148 -2.30367 2.67886
C 4.94205 -.61869 1.62344
C 3.02778 -1.36914 3.58013
C 1.62850 -1.35853 3.89954
C -1.62541 -2.75356 2.63755
C -2.96645 -2.37154 2.59905
C -.68448 -1.90525 3.35766
C .71521 -2.25394 3.32502
C 1.20664 -3.20299 2.33750
C 2.57360 -3.21035 2.05546
C -.05498 .41467 3.96194
C 1.24829 .00753 4.09889
C -2.70764 1.22077 3.41945
C -2.44090 -.16103 3.56231
C -1.07534 -.60032 3.76604
C -3.37734 -1.05710 3.03329
C 3.54346 -2.51973 -1.85991
C 4.31260 -1.99092 -.79864
C 4.17325 -2.61586 .45885
C 3.04530 -3.46036 .71479
C .75239 -4.00251 .01413
C 2.15437 -3.80779 -.30231
C 2.52590 -3.46631 -1.62790
C -1.54088 -4.09030 -.78091
C -.19609 -4.02671 -1.08267
C -1.12728 -3.63932 1.59164
C .28752 -3.73312 1.33631
C -2.00770 -4.01345 .56619
C 4.71948 -.59336 -.86640
C 5.10392 .02774 .33648
C 4.86612 1.42670 .55036
C 4.21803 .24358 -1.95954
C 4.17379 1.62200 -1.77092
C 4.45155 2.21190 -.49045
C 1.97773 -2.29361 -3.55913
C 3.15273 -1.70401 -3.00291
C 3.34390 -.31844 -2.99592
C 1.04200 -1.49694 -4.20153
C 1.23514 -.08433 -4.24201
C 2.33591 .52303 -3.63534
C .17391 -3.52127 -2.40899
C 1.52470 -3.31815 -2.66824
C -.35316 -1.76489 -4.03591
C -.80672 -2.75844 -3.17045
C 1.64857 4.13430 -1.54805
C 3.50847 3.27728 -.25266
C 2.88421 3.53824 -1.51778
C 2.18871 1.92147 -3.24334
C 3.17449 2.45805 -2.41593
C .67777 3.70633 -2.50754
C .87686 2.56766 -3.28679
C -.08564 .53306 -4.22015
C -.30912 1.79768 -3.67763
C -1.61830 2.09138 -3.14412
C -1.76410 3.27848 -2.30342
C -.62083 4.01947 -1.96164
C -2.85464 3.38605 -1.42331
C -1.05213 -.49068 -4.11520
C -2.28333 -.27997 -3.49589
C -2.61534 1.05411 -3.06918
C -4.49783 .09381 -1.76500
C -3.77860 1.22475 -2.19335
C -3.88433 2.37361 -1.38805
C -3.71119 -3.25774 -.85147
C -2.56319 -3.51833 -1.65352
C -2.18342 -2.66618 -2.69793
C -4.50317 -2.14676 -1.12812
C -4.09864 -1.24583 -2.15764
C -2.94842 -1.45385 -2.92148
C -4.75661 -1.67347 1.26272
C -3.86136 -2.78126 1.54720
C -3.37792 -3.57325 .52598
C -5.06912 -1.36214 -.04653
C -3.74369 1.67460 2.58027
C -4.54648 .75561 1.84302
C -4.44520 -.60522 2.19898
C -4.41042 2.30966 -.07426
C -3.66911 3.26782 .73222
C -3.31319 2.94486 2.01386
C -5.07118 .03007 -.46509
C -4.88170 1.08672 .45740
