100 

C 5.11644 -.10098 .35385
C 4.59134 -1.39323 .56231
C 3.87481 -1.66621 1.80393
C 4.86460 .96425 1.28219
C 4.20365 .69090 2.46343
C 3.72009 -.62968 2.72565
C 1.65308 3.36023 2.55840
C 3.25600 1.63118 2.98740
C 2.91394 2.78475 2.26266
C 3.49388 3.01430 .94724
C 2.67087 3.64861 -.07932
C 4.54833 2.17245 .54286
C 2.96545 3.37319 -1.42116
C 2.93432 -2.78169 1.89486
C 2.87253 -3.67644 .82246
C 1.69933 -4.46424 .57039
C 1.77225 -2.68439 2.77961
C .72296 -3.58362 2.61169
C .68068 -4.50058 1.49523
C 2.23262 .87840 3.67321
C 2.50339 -.49361 3.50435
C 1.46956 -1.43500 3.44891
C .90398 1.34656 3.77227
C -.20022 .40809 3.73200
C .09848 -.99402 3.63070
C -.96942 -1.92009 3.34456
C -.62490 -3.22788 2.94672
C -1.71340 2.30096 3.11031
C -1.53967 .89453 3.41813
C -2.58235 -.02782 3.04115
C -2.84866 2.73370 2.39715
C -.59012 3.15292 3.03283
C .70649 2.69157 3.38537
C -2.73711 -3.54921 1.80404
C -.67478 -4.62117 1.05494
C -1.48388 -4.00361 2.09252
C -3.76851 .44981 2.32177
C -2.30475 -1.43668 3.05376
C -3.19410 -2.31342 2.37157
C -3.89515 1.82110 2.05058
C -1.01800 -4.45144 -.29810
C .05742 -4.21079 -1.25633
C 1.37319 -4.34675 -.82145
C 2.46283 -3.63959 -1.45607
C 2.22603 -2.75530 -2.53811
C 3.22118 -1.80789 -2.80256
C -3.25637 -3.66543 .45781
C -2.37804 -4.00332 -.60712
C -2.61096 -3.38783 -1.85508
C -1.49638 -3.00690 -2.70585
C -.18498 -3.34501 -2.41954
C .86634 -2.50054 -2.95985
C -4.22783 -2.64142 .31157
C -4.96032 -.70061 -.94755
C -4.45606 -2.02667 -.94490
C -3.63356 -2.42284 -2.03251
C -4.52010 -.45324 1.47353
C -4.20189 -1.82416 1.50933
C -5.12245 .03411 .28169
C 3.41419 -3.30236 -.46647
C 4.30852 -1.58712 -1.88846
C 4.27366 -2.18753 -.61526
C 4.76016 -.23118 -2.06454
C 5.18110 .49355 -.96745
C 3.90852 .38790 -3.06598
C 4.81488 1.89881 -.84369
C 4.03050 2.49434 -1.81402
C 3.56121 1.71641 -2.94933
C 2.90423 -.57086 -3.44936
C 1.56700 -.21392 -3.68437
C .53811 -1.22337 -3.52886
C -1.82576 -1.77651 -3.34207
C -.84133 -.81049 -3.61677
C -2.58136 .94015 -3.22662
C -1.21521 .58485 -3.55950
C -.16888 1.57263 -3.43637
C 1.20756 1.18541 -3.60196
C 2.20978 2.11450 -3.23509
C -2.84739 2.25198 -2.77502
C -1.77598 3.14295 -2.47831
C -.45165 2.82421 -2.78912
C -4.76991 1.54779 -1.45141
C -4.61342 .22405 -1.98232
C -3.55199 -.08579 -2.88750
C -3.15171 -1.42914 -2.96314
C -3.92879 2.55920 -1.87917
C -3.77458 3.46843 .39665
C -4.54155 2.31864 .86817
C -5.08665 1.42608 -.03847
C -3.45737 3.57396 -.94145
C -.45051 4.07237 1.95895
C -1.47773 4.22929 1.00961
C -2.74795 3.73239 1.37799
C 1.89737 3.20248 -2.36548
C .57623 3.51438 -2.05135
C .28419 4.10821 -.77294
C 1.32475 4.11391 .23386
C .92997 4.11781 1.58974
C -2.10277 3.92320 -1.32819
C -1.10647 4.26072 -.39163
