100 

C 1.74928 -4.07210 -.79590
C 2.86408 -3.84674 .00987
C -.77711 -3.86652 -2.10840
C .31864 -3.15276 -2.65087
C 1.63774 -3.32740 -2.05444
C 2.69061 -2.45245 -2.44209
C 2.40524 -1.43435 -3.41349
C -2.09095 -3.41500 -2.25300
C -2.38386 -2.16037 -2.86725
C -1.31228 -1.42996 -3.44766
C .01868 -1.99564 -3.42482
C 1.10327 -1.17170 -3.81769
C -2.66473 .61538 -3.36171
C -1.46018 .02103 -3.66112
C -3.74880 -.12006 -2.75556
C -3.61072 -1.48212 -2.46173
C -4.35055 -1.97372 -1.35067
C 3.83821 -2.23644 -1.57164
C 3.88701 -2.91513 -.35794
C 3.11797 -.16060 -3.42494
C 4.16524 .05001 -2.58571
C 4.55995 -.98862 -1.64766
C 3.25217 3.34685 -1.14088
C 4.31644 1.34017 -1.93991
C 3.34905 2.38887 -2.13912
C -.29273 .89168 -3.72384
C .94009 .27476 -3.96863
C 2.14764 .89944 -3.66809
C .93177 2.80804 -2.72136
C 2.17494 2.13400 -2.97007
C -.30686 2.20857 -3.16008
C 5.03088 -.34776 -.50051
C 4.84837 -.94098 .79446
C 4.36144 -2.25693 .84399
C 4.53956 -.08380 1.88982
C 4.88666 1.10639 -.68470
C 3.85285 3.13211 .15641
C 4.57780 1.95836 .42319
C 4.41164 1.36018 1.70840
C 3.59073 -.48225 2.84934
C 3.02442 -1.77359 2.85064
C 3.56231 -2.70887 1.94069
C 2.75467 -3.80598 1.45735
C 1.56027 -4.07986 2.05927
C 2.80271 .66753 3.22154
C 1.44433 .58336 3.48655
C .83344 -.75280 3.55708
C 1.64608 -1.91263 3.30196
C 1.00912 -3.14314 3.02523
C -1.41186 .34288 3.48425
C -.59507 -.86818 3.53089
C -1.20718 -2.12987 3.20158
C -.38485 -3.23876 2.95110
C -2.76896 .19847 3.23546
C -1.62081 2.74191 2.78338
C .40996 3.99472 2.23222
C 1.23476 2.97594 2.74365
C .61976 1.78713 3.28497
C -.80401 1.66803 3.29669
C -.98869 3.88407 2.25884
C 3.39418 1.81204 2.56575
C 2.98477 3.70470 1.13910
C 2.61624 2.95192 2.27210
C -.66540 -4.57277 -.83787
C .55146 -4.60191 -.14374
C .47360 -4.60941 1.27457
C -.72697 -4.21224 1.91336
C -1.93331 -4.11577 1.20974
C -1.90534 -4.47566 -.16484
C -3.88672 -3.13988 -.61371
C -2.83703 -3.87175 -1.08743
C -3.35360 -1.05780 2.83790
C -2.57308 -2.19854 2.70064
C -2.93940 -3.17103 1.68015
C -3.99449 -2.85489 .80648
C -4.52979 .66085 1.77669
C -4.45429 -.77668 1.96591
C -4.72456 -1.63153 .91980
C -4.33300 2.54300 .28694
C -4.79733 1.22430 .50498
C -1.50034 4.53622 1.05376
C -2.69419 4.15324 .52555
C -3.52741 3.20710 1.24364
C -2.99291 2.49419 2.35011
C -3.55928 1.24912 2.62889
C 1.98554 4.46746 .42480
C -.39017 4.80161 .17992
C .77230 4.70379 1.00553
C -3.89539 2.08994 -2.08000
C -2.73651 1.98569 -2.91834
C -1.58172 2.74750 -2.69853
C -3.89672 2.98576 -1.03862
C -2.79210 3.88228 -.88642
C -1.62338 3.76692 -1.67237
C -.37984 4.28482 -1.13485
C .88699 3.86184 -1.70394
C 2.04987 4.11827 -.96679
C -4.92906 -1.07817 -.42162
C -4.93206 .32238 -.64674
C -4.46738 .76401 -1.90643
