100 

C -2.64609 -2.80355 2.43488
C -2.73720 -1.43581 2.70514
C -3.84215 -.72191 2.10130
C -3.84021 .72650 2.09678
C -4.65794 1.38909 1.15444
C -4.36053 2.71348 .70626
C -2.73036 1.44178 2.69123
C -2.63710 2.80680 2.41125
C -3.41407 3.44711 1.38490
C -1.38956 -3.48933 2.51395
C 2.24300 1.41823 3.25869
C 3.40577 .70905 3.00139
C -.25638 -2.85417 3.01917
C -.30182 -1.42915 3.35183
C -1.53432 -.71571 3.17795
C -1.52763 .72082 3.16698
C 3.40795 -.72522 3.00404
C -1.37680 3.48899 2.47588
C 2.22070 -1.44710 3.29039
C .94863 -.71928 3.49315
C .95736 .70589 3.47683
C -.28706 1.42617 3.32496
C -.23719 2.85339 2.97335
C 2.20850 -2.76931 2.85023
C .96857 -3.46610 2.68672
C -3.39607 3.43795 -1.42967
C -2.50898 4.33747 -.70984
C -4.36236 2.71460 -.75525
C -2.54584 4.36790 .67232
C -1.29916 4.42559 1.39939
C -.06566 4.62136 .74313
C 1.07618 4.30070 1.49425
C 2.22847 2.76358 2.77506
C .98290 3.46095 2.62607
C -2.61021 -2.79579 -2.43670
C -2.79603 -1.44784 -2.76850
C -4.68384 1.39236 -1.19648
C -2.63792 2.79313 -2.45899
C -2.81313 1.44141 -2.78262
C -3.90549 .72353 -2.16535
C -3.89858 -.73508 -2.16070
C -.41828 -1.41908 -3.53482
C .70297 -.69032 -3.92598
C -.44330 1.43126 -3.56311
C -1.67408 .71628 -3.34825
C -1.66180 -.71741 -3.33557
C .68865 .71248 -3.94339
C .00190 4.45859 -.70230
C -1.22090 4.30793 -1.38355
C -1.32336 3.40560 -2.46659
C 1.09300 3.10779 -2.47890
C -.21231 2.73647 -2.96389
C 1.19853 3.93094 -1.30775
C -5.11400 .67399 -.01550
C -4.67529 -1.40299 -1.19019
C -5.11180 -.68104 -.01335
C -3.37286 -3.44164 -1.41016
C -4.34816 -2.72161 -.74349
C -3.41397 -3.44720 1.40410
C -2.53904 -4.36868 .69947
C -4.35593 -2.71556 .71761
C -2.48851 -4.33796 -.68311
C -1.30031 -4.42565 1.43554
C 1.07383 -4.29821 1.55287
C -.06198 -4.61730 .79006
C -1.19469 -4.30645 -1.34334
C 1.22509 -3.92272 -1.25878
C .01523 -4.45501 -.65801
C 3.55922 -3.11523 -.91154
C 2.44976 -3.87308 -.44692
C 2.35935 -4.06242 .93781
C -.18201 -2.72902 -2.92116
C -1.28933 -3.39623 -2.43509
C 2.06037 -1.13212 -3.65210
C 2.28780 -2.30804 -2.85261
C 1.13028 -3.10001 -2.42090
C 3.47517 -2.36614 -2.13992
C -4.65744 -1.38999 1.16051
C 4.90824 -1.22662 -.72809
C 4.41933 -2.42322 -.04016
C 2.87597 -.00466 -3.54789
C 4.34711 1.20482 -2.03918
C 4.02329 .00317 -2.67717
C 4.35132 -1.21796 -2.02146
C 2.34500 4.05510 .86811
C 2.42569 3.86647 -.50388
C 3.55325 3.09238 -.98512
C 3.47817 2.37312 -2.16011
C 2.23946 2.31295 -2.90948
C 2.02258 1.17619 -3.66822
C 4.37763 1.15264 2.02443
C 4.15683 2.35577 1.30952
C 3.10648 3.20224 1.78005
C 4.44562 2.38071 -.06792
C 3.10841 -3.22426 1.82826
C 4.13187 -2.38808 1.35579
C 4.34703 -1.16847 2.05729
C 5.13326 -.00238 -.01812
C 4.90911 .00535 1.38744
C 4.91822 1.21336 -.72679
