100 

C 4.80922 -1.66071 -.60158
C 4.19088 2.44255 -.01349
C 4.71186 1.17019 -.30641
C 4.96735 .32432 .79648
C 4.97166 -1.11697 .64367
C 2.64545 3.74890 1.12799
C 3.69059 2.75374 1.27062
C 3.64389 1.78147 2.28523
C 4.42275 .62136 2.07886
C 1.46682 3.70378 1.90133
C 1.32802 2.63726 2.89639
C -.97962 4.03250 1.92689
C .29286 4.35267 1.36279
C .29981 4.82606 .02642
C 2.97924 -.68250 3.54485
C 4.30742 -1.70410 1.79315
C 4.07480 -.63680 2.71354
C .02034 2.25370 3.30946
C 2.44690 1.71724 3.12731
C 2.18963 .51349 3.78018
C -1.09799 3.01157 2.86218
C 2.09170 -1.79849 3.48466
C 2.23306 -2.81092 2.53402
C 3.39039 -2.76381 1.64900
C 3.31332 -3.40794 .34405
C 4.00650 -2.85484 -.75628
C 2.17215 -4.17489 .04790
C .78134 -1.31897 3.86992
C -.40029 -1.94042 3.45274
C -.30218 -3.13786 2.63830
C 1.02152 -3.54899 2.14831
C 1.08289 -4.32052 .99604
C -2.72761 -2.96598 2.27026
C -1.48003 -3.61315 1.99352
C -.25798 .90794 3.76857
C .84581 .08159 4.03900
C -2.40462 2.41638 2.72141
C -2.63730 1.08407 2.99144
C -1.53085 .28783 3.54221
C -1.59383 -1.14447 3.45358
C -2.77157 -1.74301 2.94545
C 1.61860 -4.19126 -1.24961
C 2.11494 -3.34821 -2.26540
C 3.39564 -2.80038 -2.04511
C 3.80003 -1.55644 -2.67528
C 2.90934 -.90635 -3.50329
C .20696 -4.46101 -1.13515
C -2.05935 -3.86105 -1.55910
C -.72518 -3.84291 -1.99001
C -.28446 -2.79348 -2.90473
C 1.14783 -2.62782 -3.10850
C 1.58771 -1.46566 -3.73635
C -2.40662 -4.20795 -.22347
C -1.37831 -4.34022 .74235
C -.09746 -4.62112 .24312
C -3.66649 -3.56465 .08899
C -3.84730 -3.00083 1.33539
C 4.42624 .58903 -1.61606
C 3.50209 1.27299 -2.50859
C 4.58834 -.80348 -1.75480
C 2.79527 .51228 -3.44541
C 1.62144 2.97334 -2.65568
C 2.93805 2.57619 -2.14404
C 3.41509 3.19228 -.98651
C .96082 4.02818 -2.04052
C 1.42157 4.58710 -.80055
C 2.60347 4.11322 -.24479
C -3.01301 -2.90402 -2.05498
C -2.58504 -1.78863 -2.78112
C -1.19378 -1.73542 -3.23397
C -.66769 -.46119 -3.68030
C .69274 -.37946 -3.96251
C 1.42471 .84243 -3.80737
C -1.38587 .78101 -3.46114
C -.65316 2.00602 -3.32385
C .80401 2.00054 -3.39913
C -3.37585 -.57274 -2.69393
C -2.77174 .70999 -3.03202
C -3.37681 1.87278 -2.54337
C -2.62177 3.06320 -2.31437
C -1.29139 3.15327 -2.71177
C -.48614 4.12427 -2.04252
C -4.80497 -1.66884 -.97802
C -4.07954 -2.83096 -1.09406
C -4.91822 .61845 -1.15844
C -4.51655 -.57357 -1.86081
C -4.39171 1.82150 -1.52440
C -4.56576 -1.74620 1.46233
C -5.08638 .29818 .25029
C -5.10789 -1.12814 .34297
C -3.09870 3.12312 1.65997
C -4.08761 2.81586 -.52215
C -4.03885 2.44358 .83545
C -4.45661 1.09923 1.22481
C -3.77855 .43555 2.32708
C -3.87765 -.95033 2.42831
C -.88972 4.66545 -.81540
C -3.07431 3.66266 -1.07695
C -2.16136 4.33867 -.25477
C -2.21919 4.09008 1.14972
