100 

C 2.81152 1.31091 3.26090
C 3.87878 1.27376 2.33777
C 4.06508 2.42163 1.53737
C 1.87242 2.36137 3.25735
C 1.93685 3.41432 2.31900
C 3.10314 3.47751 1.52625
C 4.33218 -.02709 1.85683
C 5.02458 -.06236 .63107
C 4.96883 -1.21312 -.21467
C 3.65271 -1.23953 2.30469
C 3.82069 -2.40309 1.55943
C 4.43426 -2.38054 .26276
C 2.11939 .09631 3.65511
C 2.45689 -1.15121 3.15295
C .08131 -1.83684 3.47554
C 1.41440 -2.17765 3.09717
C 1.62919 -3.36655 2.28166
C 2.82695 -3.45935 1.54842
C -.98200 -2.71837 3.13631
C .71836 4.64787 .59514
C .68123 3.98799 1.82553
C -.28631 -.47137 3.77497
C -.62683 2.32817 3.20377
C .59617 1.82370 3.67415
C .76245 .45084 3.93929
C 1.69105 -4.62679 -.26070
C 3.67185 -3.24919 -.61188
C 2.84302 -4.04756 .24944
C .56191 -4.80474 .57255
C -.79029 -3.84200 2.33811
C .50540 -4.15759 1.83292
C 1.23200 -4.23355 -1.56825
C 1.86545 -3.23590 -2.29508
C 3.18564 -2.77716 -1.84079
C 3.72030 -1.51117 -2.34124
C 4.65589 -.78939 -1.57032
C 2.93588 -.76746 -3.25183
C -.20731 -4.38494 -1.57546
C -2.38226 -3.46726 -1.99997
C -1.03872 -3.53021 -2.36036
C -.43946 -2.42082 -3.07334
C 1.01928 -2.35355 -3.12611
C 1.59164 -1.19440 -3.60834
C -2.00996 -4.06844 1.56303
C -1.90996 -4.47713 .19954
C -.61265 -4.80075 -.29923
C -2.83706 -3.95074 -.71215
C 2.96127 .64008 -3.26684
C 3.77597 1.37593 -2.37609
C 4.68712 .63770 -1.59047
C 5.03198 1.08431 -.25298
C 4.58808 2.29691 .18975
C 1.98486 3.15360 -2.33445
C 3.28957 2.66672 -1.89879
C 3.81670 3.15460 -.68514
C 1.38139 4.16413 -1.58625
C 1.86120 4.52476 -.28674
C 3.03910 3.99287 .17120
C 1.63402 1.10932 -3.62907
C -.34268 2.41551 -3.08983
C 1.10514 2.29734 -3.15170
C -2.25244 3.53186 -1.99524
C -.89712 3.54267 -2.35871
C -.05083 4.33918 -1.57065
C -.56949 .00300 -3.64681
C .80812 -.02559 -3.85253
C -4.48955 .07915 -1.99691
C -3.31935 .05661 -2.78851
C -2.59520 1.30023 -2.97952
C -1.18056 1.27903 -3.35469
C -3.12132 2.46159 -2.40531
C -1.23083 -1.25290 -3.34569
C -3.19175 -2.35416 -2.37476
C -2.63262 -1.21685 -2.96816
C -3.90581 3.32576 -.38145
C -2.68316 4.01773 -.73064
C -1.71194 4.35752 .24388
C -.44246 4.69084 -.24611
C -4.08730 2.89448 .91739
C -5.18566 .83738 .11458
C -4.87557 1.24429 -1.25298
C -4.22152 2.43152 -1.48167
C -4.71779 1.61187 1.16809
C -4.23848 -2.25095 -1.39123
C -5.07303 -.58536 .18497
C -4.84425 -1.04992 -1.17518
C -2.95320 -3.09954 1.94278
C -4.00059 .97827 2.22853
C -3.80748 -.40050 2.28401
C -4.41857 -1.22815 1.25567
C -3.91259 -2.57973 1.03103
C -3.90820 -3.10760 -.27663
C -1.80044 3.76669 1.56955
C -.61253 3.46722 2.29651
C -2.99760 3.04628 1.87654
C -2.96635 1.89934 2.67610
C -1.75862 1.44574 3.25892
C -1.59632 .03447 3.49257
C -2.63933 -.89119 3.02845
C -2.31931 -2.22912 2.91738
