100 

C 2.02398 .47004 -3.71234
C .80659 1.10172 -3.65329
C -1.69105 .96257 -3.46890
C -1.68388 2.36659 -3.30786
C -2.73159 3.05236 -2.65003
C -3.83485 2.33147 -2.19462
C 2.12786 -.95323 -3.74525
C .96402 -1.75723 -3.66302
C -.35248 -1.11537 -3.60842
C -.42316 .29352 -3.69220
C -1.27429 -3.21393 -2.57214
C -1.50628 -1.87588 -3.09135
C -2.70711 -1.20650 -2.73927
C -2.83075 .21970 -3.01271
C -3.90125 .93463 -2.42575
C -2.17057 -3.77609 -1.65680
C -3.37292 -3.09811 -1.29730
C -3.65427 -1.83184 -1.80290
C .03897 -3.74389 -2.54208
C 1.14418 -3.04436 -3.13993
C -2.63712 4.31117 -.54911
C -3.72258 3.48911 -.03900
C -2.14999 4.10237 -1.82514
C -4.36473 2.59337 -.86500
C -4.81887 1.34032 -.31870
C -4.54057 .98574 1.02829
C -4.64897 -.36758 1.34979
C -4.54573 -.99792 -1.00596
C -4.65571 .35532 -1.32697
C -4.81733 -1.35256 .34249
C .51838 4.42537 1.41444
C -.31958 4.64606 .29722
C -1.69819 4.51436 .52911
C -2.16320 3.76482 1.66749
C -1.26277 3.20341 2.57885
C .05049 3.73315 2.54188
C .98134 1.74723 3.65874
C 1.15884 3.03408 3.13436
C 2.14561 .94327 3.73539
C -3.64558 1.82006 1.82087
C -3.36713 3.08647 1.31377
C -.40539 -.30358 3.69480
C -3.88911 -.94661 2.44491
C -2.81600 -.23101 3.02690
C -2.69414 1.19538 2.75298
C -1.49202 1.86541 3.09939
C -.33549 1.10547 3.61062
C .21453 4.35348 -1.02949
C -.71635 4.08514 -2.04278
C 1.92517 4.13780 1.25722
C 2.45599 3.86085 -.00511
C 1.55845 3.83009 -1.17009
C 3.65597 3.09392 -.03563
C 2.33689 3.37368 2.40142
C 3.35795 1.30107 3.10342
C 3.42921 2.48570 2.32831
C 4.16377 2.44832 1.10204
C 4.00269 2.30418 -1.19275
C 3.11709 2.18662 -2.25417
C 1.85793 2.93728 -2.24510
C .78273 2.45516 -3.08035
C -.44654 3.07478 -3.00227
C 3.20434 .99858 -3.04950
C 4.79337 1.18141 -.74945
C 4.84757 -1.24118 -.69048
C 4.75642 -.04950 -1.44815
C 4.00641 -.08359 -2.67677
C 4.01907 .07318 2.65846
C 4.76291 .03873 1.42590
C 4.84997 1.23024 .66780
C 4.79762 -1.19233 .72683
C 4.15942 -2.45926 -1.12186
C 3.41843 -2.49622 -2.34459
C 3.34313 -1.31121 -3.11878
C 2.32589 -3.38443 -2.41314
C 3.65715 -3.10510 .01769
C 1.56470 -3.84013 1.16190
C 2.45685 -3.87200 -.00760
C 1.92011 -4.14966 -1.26764
C -.70537 -4.09553 2.04599
C .22039 -4.36402 1.02794
C 3.21898 -1.00901 3.03452
C -.43133 -3.08533 3.00466
C .79806 -2.46491 3.07649
C 1.86920 -2.94709 2.23540
C 3.12844 -2.19713 2.23872
C 4.00965 -2.31551 1.17324
C -3.82354 -2.34323 2.21353
C -2.71771 -3.06360 2.66369
C -1.66696 -2.37735 3.31657
C -1.67383 -.97302 3.47752
C .82438 -1.11145 3.64915
C 2.04199 -.48003 3.70250
C -2.63345 -4.32244 .56216
C -3.72179 -3.50084 .05738
C -4.36018 -2.60542 .88663
C -2.13989 -4.11329 1.83569
C .51237 -4.43702 -1.41745
C -.32015 -4.65749 -.29597
C -1.70000 -4.52583 -.52075
