100 

C -5.06856 .39538 -.58966
C -4.67603 1.75482 -.61200
C -2.73712 3.78132 -.76879
C -2.86558 2.88320 -1.87400
C -3.92140 1.97967 -1.82281
C -.46049 3.34085 -2.42006
C -1.67359 2.57927 -2.67449
C .72093 2.90288 -3.00385
C -1.47949 4.44325 -.48016
C .96520 4.46251 -.62686
C -.34132 4.23573 -1.24973
C 3.31903 3.66334 -.47800
C 2.17415 3.93656 -1.26209
C 2.03613 3.20550 -2.45930
C 1.01259 4.70324 .75911
C -4.61767 -.21892 -1.83965
C -4.27133 -1.60048 -1.90627
C -4.43129 -2.39552 -.73397
C -3.25890 -1.96777 -2.81482
C -3.88129 .74181 -2.55424
C -1.60043 1.32870 -3.36915
C -2.72992 .39492 -3.31140
C -2.50812 -.96833 -3.52107
C .79898 1.64102 -3.64810
C -.30729 .80896 -3.76288
C -2.37131 -3.05032 -2.52617
C -2.44649 -3.75828 -1.32696
C -3.56392 -3.46969 -.47367
C -3.41637 -3.54792 .96631
C -2.25688 -4.01164 1.49626
C -1.08792 -2.73735 -3.11832
C .13092 -3.20498 -2.57803
C .08838 -4.04394 -1.40005
C -1.20434 -4.27492 -.73932
C -1.20297 -4.52129 .63543
C 2.52225 -3.77176 -1.23181
C 1.30032 -4.24908 -.67354
C -.05202 -.61837 -3.80547
C -1.17131 -1.48047 -3.71830
C 2.12464 1.12418 -3.47296
C 2.36127 -.23123 -3.31734
C 1.23268 -1.14500 -3.48593
C 1.31266 -2.47753 -2.92067
C 2.51858 -2.87489 -2.30966
C -3.73852 -.31393 2.72181
C -3.38129 -1.63975 2.58285
C -4.06161 -2.39823 1.56468
C -.23700 -3.63719 2.55998
C -1.61953 -3.30371 2.60345
C -2.04450 -2.05066 3.02178
C 2.05467 -3.02953 2.62424
C .73619 -2.73891 3.01493
C -1.02928 -1.04107 3.40015
C 1.25744 -4.41512 .76694
C .00820 -4.43512 1.39084
C 2.33165 -3.91601 1.55283
C -4.77209 -1.74948 .54895
C -4.63136 .33187 1.80124
C -5.03995 -.34458 .62193
C -4.28979 1.70876 1.78471
C -4.31102 2.43813 .57680
C -3.39190 3.52606 .44371
C -3.18022 1.89903 2.71863
C -2.22896 2.95363 2.55161
C -2.48263 3.88664 1.53108
C -.16868 4.59992 1.55865
C -1.40531 4.60725 .94492
C .36509 -1.37794 3.36679
C -1.40674 .33515 3.45640
C -2.79361 .66783 3.21691
C .08250 3.66292 2.62390
C -.87424 2.72375 3.00264
C 1.37141 -.34037 3.31836
C .97217 1.03389 3.30905
C -.42874 1.37520 3.37605
C 4.09883 -2.41035 1.74717
C 3.07855 -2.02573 2.68428
C 2.76279 -.69162 2.95725
C 4.87534 -1.43704 1.16239
C 4.73359 -.08209 1.60290
C 3.67414 .31485 2.45019
C 3.25547 1.69641 2.41374
C 1.94495 2.06205 2.91549
C 1.47911 3.34028 2.60686
C 4.41349 -2.39335 -1.05243
C 3.69798 -3.48575 -.41772
C 3.58853 -3.51915 .95974
C 5.06537 -1.43573 -.28635
C 4.34513 .34873 -1.85018
C 3.56231 -.63825 -2.57456
C 3.65562 -1.97613 -2.18637
C 5.08297 -.07857 -.72595
C 4.69314 2.03720 .43468
C 4.21341 2.60771 -.81356
C 3.96041 1.76016 -1.91587
C 2.89818 2.12856 -2.76623
C 5.10434 .74139 .47783
C 2.07697 4.13192 1.56248
C 3.90898 2.56812 1.51614
C 3.23064 3.70548 .97438
