100 

C -.82254 4.49088 -1.12583
C -1.71540 4.35691 -.05975
C -3.00510 3.83702 -.38291
C -3.88775 3.29397 .63092
C -3.40708 3.12741 1.91308
C .58291 4.60537 -.90854
C 1.14244 4.34936 .34878
C .23803 4.01108 1.44528
C -1.17040 4.11951 1.26091
C -2.03229 3.48785 2.21478
C 2.09949 2.87778 2.59225
C .73159 3.15849 2.51705
C 3.02605 3.28706 1.54853
C 2.54597 3.92698 .39145
C 3.23439 3.65355 -.81725
C -5.05825 1.12190 .73147
C -4.54668 .93888 2.09701
C -4.66617 2.23271 .00475
C -3.69815 1.89702 2.63956
C -2.50992 1.48065 3.28898
C -1.16552 -2.51728 2.76235
C -.25184 -1.51301 3.31822
C -2.11282 .12668 3.35951
C -3.02428 -.86620 2.86994
C -4.25093 -.43370 2.28706
C -.15033 2.24876 3.18128
C -1.52730 2.51789 3.08760
C 2.56702 1.68883 3.18020
C 1.66785 .64509 3.53895
C .27557 .92229 3.54492
C -.70035 -.18368 3.51776
C 2.14269 -.72081 3.46812
C 1.18353 -1.79285 3.34473
C 1.64074 -3.02183 2.85214
C -4.33782 -2.35854 .80422
C -5.09568 -.15159 .09423
C -4.80094 -1.12935 1.13301
C -.61685 -3.69660 2.09197
C -2.52130 -2.18283 2.53066
C -3.28466 -2.97032 1.58982
C .75813 -3.93193 2.16807
C -4.15617 -2.72425 -.58526
C -4.17852 -1.69888 -1.58758
C -4.59934 -.34728 -1.21382
C -4.04499 .79565 -1.91560
C -4.16939 2.05579 -1.32217
C -3.30987 -1.85215 -2.67161
C -3.18727 -3.74023 -.60585
C -1.02264 -4.47768 -1.46282
C -2.29749 -3.88572 -1.70879
C -2.38711 -2.94357 -2.75035
C -1.32810 -4.30947 .99777
C -2.66917 -3.89860 .76065
C -.60888 -4.83273 -.10177
C -2.68128 -.70039 -3.28576
C -2.96225 .59886 -2.89358
C -1.93474 1.60204 -3.10469
C -2.12146 2.89805 -2.48010
C -3.19150 3.09471 -1.56834
C -1.03165 3.75455 -2.34588
C -1.37706 -1.08229 -3.71107
C 1.03690 -.71177 -3.56169
C -.31704 -.18463 -3.74346
C -.61743 1.21350 -3.53549
C 3.35632 -.25119 -2.96550
C 2.12344 .22203 -3.44290
C 1.86580 1.65317 -3.38368
C .49604 2.14307 -3.41209
C .24435 3.41917 -2.89598
C .11904 -4.07671 -2.17195
C .07019 -2.95459 -3.05298
C -1.19112 -2.46911 -3.39285
C 2.42909 -2.45042 -2.42916
C 1.22054 -2.07082 -3.14152
C 3.47346 -1.54511 -2.39103
C 1.22677 4.11846 -2.11513
C 2.50885 3.65613 -2.07614
C 2.86005 2.48106 -2.82201
C 4.84519 -.13159 -1.15015
C 4.28774 .60204 -2.27556
C 4.02224 1.93688 -2.17020
C 4.89283 -.35506 1.24981
C 4.98692 .48854 .12230
C 1.27894 -4.30828 -1.32982
C 3.24350 -3.37024 -.20164
C 2.40390 -3.50230 -1.39613
C 4.57318 -1.73468 1.12326
C 4.22718 -2.28796 -.13174
C 4.40443 -1.46775 -1.26388
C 3.81917 -2.11674 2.31028
C 2.92666 -3.15151 2.24092
C 2.77100 -3.90420 1.00706
C 1.48171 -4.52512 1.08657
C .80518 -4.84993 -.08392
C 3.85559 1.40916 2.58968
C 4.28230 .11864 2.48964
C 3.47360 -.94395 3.04247
C 4.20479 2.61811 -.88811
C 4.60838 1.90240 .26123
C 4.07891 2.34519 1.50199
