100 

C -3.51082 -.55734 2.90803
C -3.21114 -1.89716 2.59946
C -3.93954 -2.48814 1.54069
C -3.35999 -3.56999 .77006
C -2.24407 -4.19860 1.22487
C -.84785 -1.50340 3.36168
C -1.88135 -2.39590 2.93168
C -1.52221 -3.65650 2.36868
C .84850 -3.19159 2.70531
C -.19516 -4.02845 2.22681
C 2.14471 -3.45813 2.18458
C -2.12227 3.68937 2.01425
C -1.84544 2.64563 2.91135
C -2.84346 1.65909 3.06435
C -2.49141 .31309 3.43428
C .54368 -1.90101 3.23930
C -.12860 .93591 3.54490
C -1.17345 -.08929 3.57455
C -.13850 -4.27891 -1.79469
C -1.34100 -4.31463 -1.09513
C -1.27813 -4.71590 .28222
C -.04843 -4.76102 .95185
C 2.31487 -4.19967 .91819
C 1.17793 -4.71192 .23786
C 1.11728 -4.54485 -1.16307
C -2.44211 -3.44959 -1.53772
C -3.49327 -3.24661 -.64368
C .08595 -3.29201 -2.83246
C -.90254 -2.33728 -3.18117
C -2.22675 -2.45458 -2.59022
C -3.13803 -1.36571 -2.71934
C -2.71980 -.21729 -3.46658
C 1.44617 -2.98264 -2.86116
C 1.91176 -1.68856 -3.21936
C .95814 -.73049 -3.66473
C -.44465 -1.09849 -3.71159
C -1.40177 -.07066 -3.88999
C 2.60788 1.03348 -3.31566
C 1.31711 .68767 -3.65671
C 4.74021 -1.36825 -.79585
C 3.86509 -2.04641 -1.66251
C 3.21101 -1.27927 -2.71461
C 3.56601 .06325 -2.87301
C 2.11427 -3.76858 -1.83548
C 3.38099 -3.62391 .21496
C 3.23864 -3.27875 -1.17187
C -4.21125 -1.17791 -1.75600
C -4.34260 -2.10029 -.72304
C -3.23178 1.11899 -3.17813
C -4.19403 1.29849 -2.23294
C -4.71503 .15286 -1.50709
C -2.67715 4.00938 -.20856
C -4.10059 2.42030 -1.31888
C -3.00065 3.34286 -1.38577
C -2.12641 2.06010 -3.28781
C -.59795 3.59360 -2.16174
C -1.94182 3.12369 -2.38642
C .97198 4.59319 -.52308
C -.34132 4.41532 -.97597
C -1.35315 4.54158 .00203
C .28345 1.72413 -3.54306
C -1.02864 1.33852 -3.78851
C 2.90597 2.29759 -2.66542
C 1.87805 3.21232 -2.35421
C .51275 2.93358 -2.79825
C 2.09650 4.04915 -1.24786
C -5.02024 .58552 -.21568
C -4.89963 -.30764 .90390
C -4.66232 -1.66607 .62834
C -4.39704 .21270 2.12754
C -4.63349 1.99871 -.09268
C -3.18115 3.56161 1.06181
C -4.10587 2.50334 1.13777
C -3.98453 1.60977 2.23839
C 2.64411 4.10995 1.00245
C 1.28782 4.58437 .86562
C .28910 4.23852 1.80150
C -1.03848 4.39485 1.37077
C 2.96348 3.29499 2.06038
C 4.01054 2.10003 -1.80366
C 4.05932 2.73589 -.53480
C 3.14624 3.78940 -.32382
C 4.98969 .63940 .41466
C 5.00112 .03242 -.92168
C 4.46720 .72856 -1.98160
C 3.92279 2.22551 1.88164
C 4.50986 1.95827 .62349
C 4.02205 -2.69707 1.12191
C 3.51185 1.15077 2.72004
C 3.84510 -.17075 2.43840
C 4.74371 -.38638 1.35293
C 4.73407 -1.64929 .63225
C .57871 3.21068 2.79890
C -.46040 2.29450 3.21906
C 1.90551 2.80648 2.93070
C 2.22910 1.47494 3.30341
C 1.24465 .50613 3.51012
C 1.59954 -.90295 3.30690
C 2.90895 -1.22253 2.82953
C 3.15458 -2.51724 2.28199
