100 

C -3.34758 -.95964 2.81793
C -4.41708 -.31974 2.19295
C -4.58156 1.10203 2.24158
C -2.36281 -.15344 3.52393
C -2.52487 1.23118 3.53847
C -3.62669 1.87340 2.89159
C .43398 -2.58453 3.30246
C -.83634 -2.05354 3.56151
C -1.01989 -.67439 3.74607
C 1.57888 -1.77604 3.27701
C 1.43891 -.37545 3.52694
C .13087 .18127 3.71553
C -.07296 1.60204 3.44788
C -1.36706 2.09076 3.41045
C 3.78090 -.07124 2.84259
C 2.56392 .50655 3.21500
C 3.39981 -3.33695 .44631
C 2.53410 -3.30991 1.54322
C 2.73276 -2.28854 2.55142
C 3.85587 -1.47048 2.46500
C -4.64570 2.68516 .36834
C -3.59091 3.44569 1.01312
C -5.14552 1.54095 .97842
C -3.13200 3.08625 2.26774
C -1.72592 3.19357 2.56289
C 1.53884 3.76159 .82582
C 2.88358 3.48080 1.04208
C .58799 3.35745 1.84167
C -.80306 3.66098 1.62589
C -1.26909 3.94408 .27702
C -2.62810 3.82448 .00362
C 3.28082 2.56583 2.08526
C .95777 2.37448 2.79476
C 2.31353 1.88085 2.82671
C -5.24558 .38455 -1.19937
C -4.68139 1.57278 -1.82869
C -5.39822 .35216 .18031
C -4.34940 2.66479 -1.05478
C -2.99088 -1.03796 -3.57330
C -3.98567 -.27487 -3.02905
C -3.79227 1.14723 -2.87922
C -3.07898 3.31168 -1.26465
C -.76780 3.19087 -2.02833
C -2.15842 2.84855 -2.21002
C -2.52129 1.72454 -3.05833
C 1.54618 2.89003 -2.69265
C .22198 2.54766 -2.87058
C -.07754 1.28094 -3.50702
C -1.46282 .90419 -3.64100
C -1.74562 -.42765 -3.95390
C 1.07213 3.92929 -.53853
C -.33980 3.80384 -.82298
C 1.97315 3.69730 -1.57822
C -4.38148 -1.90416 .26902
C -4.30720 -1.91103 -1.18502
C -4.93130 -.79042 .90756
C -4.73688 -.76436 -1.88096
C -3.33143 -2.77969 -1.84371
C -2.62168 -3.71528 -1.06290
C -2.71212 -2.35178 -3.03906
C -2.77432 -3.75775 .38695
C -3.49259 -2.76444 1.05768
C -2.98549 -2.29137 2.33830
C -1.57112 -4.31007 .92479
C -1.11931 -3.89600 2.17121
C -1.82611 -2.86303 2.85794
C -.62645 -4.45676 -.14084
C .28138 -3.71496 2.39269
C 1.21402 -3.90985 1.37595
C .73167 -4.22532 .04092
C -1.33115 -2.61347 -3.26910
C -.58635 -3.42658 -2.40889
C -1.29570 -4.08814 -1.37679
C .83867 -3.18186 -2.25806
C 1.50577 -3.75578 -1.11197
C 2.83256 -3.43453 -.89821
C -.73015 -1.42621 -3.83521
C .59568 -1.10241 -3.61092
C 1.44789 -2.08182 -2.93846
C 3.28407 -.36283 -2.89872
C 2.80718 -1.71986 -2.64589
C 3.52395 -2.52137 -1.74250
C 4.47356 .05486 -2.27115
C 3.76972 2.38525 -2.27785
C 2.61481 1.99364 -3.03802
C 2.33048 .65376 -3.31714
C .95607 .29827 -3.60684
C 4.69556 1.43242 -1.90711
C 4.84132 2.39764 .34609
C 3.83459 3.37072 -.03713
C 3.36274 3.41476 -1.33967
C 5.30785 1.47586 -.58661
C 5.36929 -.28936 1.13114
C 4.76293 .63944 2.06507
C 4.51380 1.94624 1.68507
C 5.57857 .10931 -.18585
C 4.65356 -2.01688 -1.00130
C 4.54286 -2.48607 .36925
C 4.81704 -1.60354 1.41161
C 5.13240 -.75673 -1.26903
