100 

C 2.67373 3.52156 1.46183
C 3.41725 3.22783 .26797
C 4.49429 2.31473 .39236
C 4.97780 1.59647 -.72105
C 4.37568 1.77584 -1.97636
C 1.36804 3.97653 1.39786
C .68714 4.14164 .14803
C 1.36254 3.79415 -1.05073
C 2.75660 3.36983 -.99741
C 3.27639 2.65622 -2.10430
C -.78838 3.70453 -2.19708
C .56552 3.43953 -2.21537
C -2.80936 3.46840 1.29739
C -1.46298 3.79219 1.40164
C -.75424 4.20633 .19592
C -1.44673 4.17912 -1.02122
C 5.09588 -.82499 -1.08434
C 4.49333 -.64101 -2.40322
C 5.31846 .25644 -.27024
C 4.12405 .61581 -2.82290
C 2.84149 .78856 -3.45441
C -.45198 -1.02518 -3.69506
C -1.79906 -.68520 -3.76733
C .53796 .05394 -3.78324
C 1.93115 -.26820 -3.62970
C 2.33607 -1.60386 -3.21834
C 3.61891 -1.75979 -2.65662
C 1.03292 2.39389 -3.12664
C 2.37317 2.08212 -3.09466
C -1.73721 2.90430 -2.95768
C -1.30694 1.72883 -3.60737
C .11036 1.40972 -3.64581
C -2.24342 .69584 -3.75236
C 2.86492 -3.61271 -1.27949
C 4.57390 -2.06568 -.52896
C 3.84138 -2.70205 -1.58407
C 1.31240 -2.60016 -2.91244
C -.10381 -2.30215 -3.12336
C 1.65007 -3.64344 -2.04909
C 2.54032 -3.87836 .08862
C 3.04891 -3.08650 1.12036
C 4.14162 -2.16590 .80700
C 4.40810 -1.02820 1.69121
C 5.00269 .16263 1.14419
C 3.62569 -.88064 2.83315
C 1.18198 -4.35838 .10824
C -1.03452 -4.30173 .97556
C .34610 -4.15282 1.21313
C .80296 -3.29244 2.29705
C 2.17056 -2.83122 2.26975
C 2.51972 -1.77536 3.11619
C -2.81610 -1.48681 -3.18704
C -2.49248 -2.61684 -2.43331
C -1.11626 -3.07109 -2.45041
C -.70734 -4.03156 -1.43520
C .65374 -4.25066 -1.21510
C -1.55758 -4.29025 -.33749
C 3.28484 .41644 3.35196
C 3.69872 1.58696 2.67230
C 4.59320 1.43542 1.57097
C 2.81158 2.68803 2.66133
C 1.98892 .33117 3.93683
C -2.11451 -.57901 3.78329
C -.78255 -.28447 3.95033
C -.35145 1.11397 3.81729
C 1.07350 1.39424 3.84838
C 1.54674 2.60387 3.28000
C -2.01330 -3.71768 1.85377
C -1.61079 -2.84479 2.86298
C -.18383 -2.58941 3.07906
C .18736 -1.37519 3.75139
C 1.53662 -1.04368 3.81301
C -2.55997 -1.86173 3.27693
C -3.07000 .41584 3.38478
C -2.63954 1.72681 3.06405
C -1.24476 2.07789 3.27101
C -.70763 3.21785 2.52394
C .64920 3.44603 2.55056
C -3.40835 2.44161 2.13226
C -4.09311 -.22816 2.66016
C -5.12580 -.34555 .44095
C -4.74128 .43232 1.58364
C -4.43603 1.79477 1.37512
C -3.20076 -3.46664 1.08492
C -4.76375 -1.76904 .35465
C -4.07237 -2.41567 1.41923
C -3.76583 -1.65581 2.59159
C -3.92486 -.60506 -2.84815
C -4.70454 -.87149 -1.75966
C -4.45573 -2.06740 -.98363
C -3.39063 -2.96367 -1.31987
C -2.89566 -3.75595 -.28412
C -2.98874 2.95311 -2.29372
C -3.86509 1.83952 -2.29038
C -3.52086 .76146 -3.14225
C -4.45231 2.36419 .05022
C -3.50279 3.46167 .04133
C -2.82031 3.78050 -1.10934
C -5.07601 .20207 -.84588
C -4.64510 1.55543 -1.07764
