100 

C 3.62439 1.40305 2.54553
C 4.05480 .08284 2.29326
C 4.94344 -.10372 1.20444
C 5.05976 -1.38017 .55859
C 4.39323 -2.46418 1.08070
C 2.36998 1.65207 3.16711
C .04016 .97250 3.54664
C 1.45060 .62187 3.44745
C 1.86828 -.74276 3.25715
C 3.20410 -1.00729 2.73160
C 3.49467 -2.28179 2.20037
C -2.28189 .24581 3.57092
C -.91940 -.08773 3.64172
C .86125 -1.79368 3.23750
C 4.36366 -2.00943 -1.71144
C 3.73978 -3.20939 -1.17000
C 5.06421 -1.15444 -.88621
C 3.79929 -3.45556 .19732
C 2.64151 -3.97231 .85422
C 1.48240 -4.35298 .12572
C .31421 -4.52416 .87838
C -.53001 -1.47799 3.42548
C 1.20936 -3.06912 2.66887
C 2.48604 -3.26731 2.09940
C -1.55026 -2.43683 3.04148
C -1.15614 -3.64507 2.43297
C .19592 -3.92650 2.19535
C 3.74882 2.15450 -1.95724
C 4.15420 .80622 -2.11255
C 4.98171 .26629 -1.09990
C 3.46943 -1.46668 -2.70837
C 3.30235 -.07892 -2.88574
C 1.00838 -.57057 -3.72852
C 2.03821 .39605 -3.41017
C 1.65725 1.77505 -3.22704
C 2.53910 2.62941 -2.54010
C -.25570 -.10586 -4.07436
C 1.34906 -3.95806 -1.25781
C 2.49653 -3.40649 -1.86925
C 2.36222 -2.36385 -2.82717
C -.07310 -2.66064 -2.85638
C 1.10273 -1.93556 -3.26925
C .04174 -3.65015 -1.80060
C 5.04353 .90920 .18602
C 3.97247 2.87584 -.75243
C 4.49676 2.20072 .38580
C 2.91288 3.84233 -.61871
C 2.37185 4.15994 .66022
C 1.02596 4.59819 .70252
C 2.04951 3.70645 -1.73935
C -.62644 1.27494 -3.88876
C .25949 2.18139 -3.31809
C -.28288 3.23062 -2.47714
C .65703 3.99858 -1.66202
C .21290 4.61303 -.48600
C 3.91169 2.47699 1.65413
C 2.85774 3.44598 1.78776
C .17870 4.27179 1.79883
C .57320 3.28461 2.73093
C 1.93818 2.95282 2.75756
C -1.79098 2.55640 2.93443
C -.40007 2.30691 3.20538
C -2.71419 1.54139 3.21712
C -1.17804 4.31309 1.32728
C -3.34186 3.32314 1.15288
C -2.18077 3.55186 1.93384
C -2.11016 3.87557 -.90536
C -1.15337 4.49549 -.08470
C -4.34330 .53485 -2.28553
C -3.81238 1.82918 -2.05997
C -4.14892 2.43549 -.83758
C -3.28787 3.44792 -.25640
C -1.67900 3.21707 -2.13883
C -2.02487 1.33477 -3.65951
C -2.56660 2.23115 -2.73347
C -4.26407 2.25252 1.46448
C -3.98113 1.41174 2.50831
C -4.84457 -.55390 1.21985
C -4.28883 -.00105 2.40108
C -4.59795 -1.92692 .98742
C -4.61778 -1.61572 -1.44890
C -4.94595 -.20724 -1.23646
C -5.05610 .32986 .06721
C -4.76169 1.70644 .21131
C -4.47518 -2.45660 -.37516
C -2.53569 -.01662 -3.81581
C -3.70963 -1.71979 -2.55186
C -3.65929 -.41024 -3.15035
C -1.89916 -4.19613 1.30880
C -.96041 -4.52002 .26599
C -1.13577 -4.01483 -1.04633
C -3.12328 -3.70279 .98812
C -3.45026 -3.45409 -.39362
C -2.44224 -3.46685 -1.38651
C -2.56573 -2.54876 -2.49346
C -1.36888 -2.13107 -3.20709
C -1.41592 -.91540 -3.92191
C -3.28623 -.69967 3.12014
C -2.92951 -2.01125 2.80170
C -3.71410 -2.66388 1.81185
