100 

C -4.77770 .25555 -1.45044
C -4.00679 -.76099 -2.04822
C -3.92025 -2.04250 -1.36809
C -2.88540 -2.98467 -1.74093
C -2.57019 -4.01863 -.83681
C -1.27129 -4.63163 -.82520
C -1.87527 -2.59661 -2.72059
C -.72934 -3.37900 -2.82763
C -.41325 -4.40956 -1.86308
C -4.54698 1.64925 -1.72277
C -2.95333 -.37010 -2.97960
C -1.81402 -1.23314 -3.21347
C -3.62540 2.00850 -2.68266
C -2.81980 .98338 -3.29866
C .59575 -4.32984 .80147
C 1.54031 -4.33040 -.32340
C -.75792 -4.60484 .53737
C 1.01341 -4.39997 -1.63206
C 1.57246 -3.59136 -2.66943
C 2.79891 -2.99788 -2.49128
C 3.50144 -3.17174 -1.26141
C 2.84725 -3.73990 -.15235
C 3.20049 -3.22915 1.15166
C .51154 -2.83737 -3.29345
C .64907 -1.47423 -3.56366
C -.54874 -.66714 -3.58592
C -1.78891 -4.12485 1.37538
C 2.24493 -3.11748 2.15280
C .89722 -3.59109 1.99039
C -.13679 -2.97055 2.76022
C -1.51397 -3.25906 2.45519
C .18944 -1.75276 3.52764
C -.84119 -.93181 3.92489
C 2.54035 -1.92766 2.92400
C 1.53558 -1.16203 3.47388
C 2.94260 .87807 3.07029
C 1.72689 .29495 3.55010
C .56283 1.12705 3.69135
C -.68219 .50706 3.96586
C 2.94514 2.26539 2.76082
C 3.74721 -1.35125 2.39862
C 4.80102 .59893 1.45386
C 3.96791 .04763 2.44993
C 4.37948 -2.01460 -1.11693
C 4.74412 -1.51621 .16868
C 4.15723 -2.13583 1.30582
C 5.08712 -.15337 .26663
C -2.96896 -3.92355 .53943
C -2.21848 -1.20265 3.60848
C -2.57735 -2.34665 2.87697
C -3.77709 -2.26285 2.13124
C -3.92683 -3.02119 .89998
C -2.87316 .03604 3.42062
C -3.93713 .17432 2.51322
C -4.44536 -1.02138 1.95015
C -4.99669 -1.01647 .60660
C -5.15033 .16537 -.05769
C -3.09832 2.50534 1.98134
C -4.08839 1.44163 1.79144
C -4.82464 1.42385 .59551
C -3.00086 3.49943 1.00039
C -3.73106 3.43035 -.23779
C -4.58909 2.37408 -.45462
C -1.89234 1.09443 3.60592
C 1.74871 3.00437 2.73444
C .52539 2.44202 3.14409
C -.71407 2.98475 2.60525
C -1.93864 2.29404 2.83427
C -.62719 3.92909 1.50345
C -1.75502 4.15333 .73310
C -4.51663 -2.17302 -.09712
C 3.09805 3.85064 1.03271
C 1.81727 3.96692 1.64335
C .66675 4.26989 .91435
C 3.19458 3.92702 -.35982
C 2.01164 4.13948 -1.12334
C .77548 4.39011 -.51901
C 4.79163 2.06816 -.37237
C 4.69737 1.99459 1.07520
C 3.83123 2.82389 1.74934
C 4.01205 2.96325 -1.07120
C 4.09342 -1.11478 -2.15999
C 4.25548 .28366 -2.00982
C 4.95388 .72496 -.87115
C -1.53323 1.54787 -3.57852
C -.38949 .76853 -3.64425
C .90680 2.75116 -2.86801
C .90648 1.40389 -3.37390
C 2.08045 .60206 -3.24643
C 1.96237 -.85337 -3.40098
C 3.01564 -1.65503 -2.95627
C 2.07074 3.26204 -2.29156
C 3.25334 2.50022 -2.22108
C 3.27151 1.15670 -2.63992
C -1.65452 4.37180 -.70754
C -2.86167 3.90271 -1.30398
C -2.79504 3.18675 -2.49968
C -.41536 4.22698 -1.33747
C -.33940 3.42994 -2.54084
C -1.51605 2.90498 -3.06558
