100 

C -3.29134 -3.14854 -1.27867
C -4.35523 -2.65042 -.49731
C -5.03529 -1.43035 -.82754
C -2.81768 -2.33380 -2.38790
C -3.51207 -1.15976 -2.70112
C -4.66640 -.72753 -1.96370
C .70927 -3.53442 -2.39181
C -.70165 -3.53672 -2.38964
C -1.43931 -2.42345 -2.81984
C 1.44225 -2.41850 -2.82427
C .71510 -1.24882 -3.27442
C -.71730 -1.25125 -3.27220
C -1.42282 .00771 -3.36344
C -2.81037 .00499 -3.16095
C 2.80456 .01462 -3.16883
C 1.41630 .01257 -3.36753
C 4.36527 -2.63554 -.51007
C 3.30089 -3.13747 -1.28861
C 2.82133 -2.32416 -2.39625
C 3.51104 -1.14748 -2.71101
C -5.24780 .67633 .41943
C -5.03947 1.42067 -.82018
C -5.24584 -.69306 .41586
C -4.66854 .72501 -1.95992
C -3.51529 1.16484 -2.69495
C -4.36337 2.64140 -.48378
C -3.30110 3.14735 -1.26248
C -2.82461 2.33972 -2.37561
C -.71264 3.54967 -2.37044
C .69814 3.55202 -2.37236
C 1.43423 2.44085 -2.81042
C -1.44677 2.43599 -2.80665
C .71099 1.27097 -3.26706
C -.72123 1.26858 -3.26505
C -3.25899 3.40413 1.55476
C -4.57338 1.37795 1.48074
C -4.25767 2.67610 .95960
C -2.43658 4.27436 .76920
C -1.16129 4.37656 -1.28540
C -2.39113 4.09441 -.63450
C -2.43370 2.78472 2.55945
C -2.49869 1.42188 2.83026
C -3.66628 .70845 2.33301
C -3.66410 -.72989 2.32933
C -4.56917 -1.39793 1.47365
C -4.24927 -2.69236 .94606
C -2.49415 -1.44195 2.82269
C -2.42462 -2.80308 2.54491
C -3.24814 -3.42005 1.53731
C -1.18813 3.49070 2.56177
C -1.24963 .70327 3.17378
C -1.24741 -.72104 3.16986
C 1.18695 3.49465 2.55894
C .00102 2.85191 2.94415
C .00371 1.41720 3.21415
C -.00674 4.82886 -.57800
C -.00490 4.80490 .85386
C -1.20553 4.44490 1.50216
C 1.19850 4.44916 1.49932
C -1.14761 -4.37072 -1.30842
C -2.37818 -4.09594 -.65575
C -2.42285 -4.28344 .74695
C -1.19122 -4.45374 1.47865
C 1.21275 -4.44960 1.47489
C .01038 -4.80609 .82804
C .00835 -4.82259 -.60389
C 1.19822 -3.50103 2.53960
C -1.17676 -3.50491 2.54338
C 1.25922 .70723 3.17038
C 1.26149 -.71706 3.16632
C .00825 -1.43113 3.20626
C .01021 -2.86428 2.92866
C 1.16098 -4.36674 -1.31222
C 2.44179 -4.27517 .73938
C 2.39259 -4.08785 -.66320
C 3.26638 -3.40915 1.52731
C 4.58054 -1.38257 1.46064
C 4.26347 -2.67794 .93338
C 3.25547 3.41496 1.54666
C 2.43471 2.79262 2.55321
C 2.50489 1.43000 2.82354
C 4.25494 2.69046 .94874
C 4.57623 1.39332 1.46867
C 3.67341 .72059 2.32307
C 3.67571 -.71774 2.31890
C 2.50954 -1.43381 2.81531
C 2.44376 -2.79507 2.53745
C 1.14714 4.38061 -1.28814
C 2.37941 4.10251 -.64026
C 2.42805 4.28267 .76328
C 4.66374 .74109 -1.97236
C 3.50717 1.17693 -2.70423
C 2.81366 2.34924 -2.38274
C 5.03589 1.43796 -.83363
C 4.35685 2.65628 -.49516
C 3.29066 3.15843 -1.27081
C 5.25208 -.67526 .40127
C 5.04049 -1.41308 -.84175
C 4.66615 -.71140 -1.97664
C 5.24998 .69412 .40520
