100 

C 3.02619 .19388 -3.21622
C 3.90150 1.03039 -2.51848
C 4.81267 .53226 -1.54417
C 3.07989 -1.22902 -2.95166
C 3.94905 -1.70166 -1.96029
C 4.82635 -.83243 -1.25634
C -.34056 -2.05387 -4.21459
C .98481 -1.52834 -4.15343
C 1.95140 -2.07506 -3.30824
C -.68238 -3.13914 -3.43536
C .30264 -3.72675 -2.58304
C 1.58615 -3.19796 -2.46017
C -3.08131 .29794 -3.41346
C -2.49554 -.96495 -3.65221
C -1.26871 -.95785 -4.33835
C 4.90580 1.06837 .84265
C 4.95155 -.35211 1.14010
C 4.87242 1.49957 -.46520
C 4.89306 -1.28099 .12117
C 2.39355 -1.66646 3.49329
C 4.18293 -.57641 2.34097
C 3.42024 -1.74340 2.52375
C 4.02181 -2.43648 .25488
C 2.05707 -3.47277 1.28692
C 3.26132 -2.68268 1.41058
C -.19461 -3.98617 2.23631
C 1.11516 -3.49528 2.42099
C 1.28641 -2.59035 3.48134
C 2.29091 -3.39980 -1.19062
C 3.50211 -2.73497 -1.02788
C -.38619 -4.28517 -1.44079
C .22682 -4.36390 -.18424
C 1.59667 -3.87028 -.01533
C -.63884 -4.43999 .92907
C -.33357 3.79315 2.40492
C .95072 3.84162 1.85534
C 4.01621 2.61180 -.81544
C 4.04636 1.69915 1.83323
C 3.18422 2.75090 1.53050
C 3.24477 3.29164 .16669
C 1.96179 2.91081 2.32508
C 3.67379 .69367 2.78359
C 1.93566 -.43050 3.98558
C 2.47114 .78525 3.49217
C 1.59096 1.91078 3.27692
C .19426 1.77925 3.70303
C -.69970 2.75882 3.32766
C 2.16326 4.03755 -.30894
C 1.05415 4.39383 .54700
C -2.60968 3.39712 2.19839
C -1.49569 4.13633 1.64314
C -1.39085 4.34007 .25595
C -.08919 4.53431 -.25895
C -3.65699 3.01955 1.36790
C .52853 -.56412 4.29094
C -.36456 .47547 4.09441
C -2.64470 1.19583 3.31752
C -2.11702 2.49599 3.17735
C 1.66418 3.85441 -1.62797
C 2.21195 2.87283 -2.47059
C 3.47139 2.35506 -2.09738
C 1.32874 2.09729 -3.31368
C 1.79673 .78277 -3.75916
C .88527 -.08774 -4.32450
C .26022 4.11313 -1.60887
C -.62014 3.41049 -2.41242
C -.06835 2.40817 -3.33525
C -2.35506 1.49184 -3.58054
C -.98412 1.46407 -3.93907
C -.49987 .24929 -4.43839
C -3.58241 3.29111 -.06052
C -2.42090 3.81270 -.64080
C -2.03431 3.35513 -1.98451
C -2.87322 2.46641 -2.64252
C -4.72571 1.28474 .24091
C -4.35012 2.26248 -.71294
C -4.00895 1.86311 -1.99699
C -4.56765 -.99726 1.01091
C -4.70869 -.08889 -.08276
C -2.14679 -1.21605 3.64677
C -1.76636 .14728 3.81694
C -3.36075 -1.51559 2.92831
C -4.11174 -.51896 2.32811
C -3.80337 .85877 2.53363
C -4.27857 1.76297 1.55787
C -2.46181 -3.61464 2.06388
C -1.30214 -3.44093 2.92026
C -1.14845 -2.26717 3.71017
C .16331 -1.92685 4.05689
C -3.45307 -2.68477 2.06637
C -1.77422 -3.95913 -1.56186
C -2.57630 -3.76865 -.43501
C -2.02027 -4.19085 .80735
C -4.05155 .48837 -2.35432
C -4.30073 -.51880 -1.39739
C -3.68179 -1.83874 -1.57875
C -2.82763 -2.07311 -2.75492
C -1.95607 -3.16331 -2.74327
C -4.09336 -2.28142 .81744
C -3.58267 -2.71466 -.46128
