100 

C -.65703 .81158 4.36922
C -1.90815 .48726 3.83841
C -3.27754 -1.29722 2.70918
C -4.14385 -.28768 2.27190
C -4.92848 -.42894 1.09387
C -4.81305 -1.59224 .33762
C .33609 -.17764 4.62745
C .03349 -1.50865 4.42504
C -1.25140 -1.87317 3.92792
C -2.22406 -.91417 3.63484
C -3.13405 -2.49635 1.90840
C -3.91377 -2.61459 .75470
C 1.02499 -2.37288 3.83152
C 2.94983 -2.63096 2.44079
C 2.27341 -1.87243 3.42059
C -4.91935 .92733 -.94935
C -4.73074 -.28218 -1.72699
C -4.98827 .86513 .43352
C -4.72905 -1.50773 -1.10904
C -3.79679 -2.52447 -1.55952
C -2.88485 -2.27341 -2.64532
C -1.80226 -3.14145 -2.74933
C -1.06911 -3.03078 3.06717
C -1.89437 -3.28203 1.99049
C -1.32122 -3.93233 .80233
C -2.09013 -3.89282 -.41687
C -3.36322 -3.24278 -.43750
C -1.43859 -4.01654 -1.64573
C -2.45515 3.66580 -1.47872
C -3.50188 2.94421 -.81013
C -4.13852 1.95580 -1.56256
C -3.45273 1.36332 -2.71957
C -2.19149 1.86658 -3.16873
C -1.84674 3.13188 -2.69018
C .51171 2.76161 -3.25763
C -.51528 3.58906 -2.74266
C 1.81984 3.10538 -2.86471
C -2.75053 -.94091 -3.17843
C -3.74606 .01116 -2.77143
C 1.29797 .42471 -3.73786
C -.62513 -2.76187 -3.43776
C -.38993 -1.41394 -3.78725
C -1.47045 -.47197 -3.64394
C -1.16035 .95131 -3.62027
C .20402 1.39931 -3.66323
C -3.45184 2.82173 .63685
C -4.21703 1.79915 1.21772
C -1.48590 4.36076 -.77513
C -1.36752 4.21221 .66491
C -2.30990 3.33901 1.37145
C -.10795 4.44387 1.20441
C -.29897 4.42202 -1.61006
C 2.05941 3.96825 -1.75296
C .98335 4.54597 -1.04966
C 1.08087 4.61778 .37740
C .30599 3.80287 2.41231
C -.57320 2.95211 3.11728
C -1.90529 2.69978 2.58878
C -2.59830 1.50430 3.04104
C -3.75027 1.11341 2.37854
C .02960 2.01814 3.96828
C 1.68723 3.51773 2.31303
C 4.56534 1.31676 .14625
C 3.81939 2.14983 .96503
C 3.27444 1.59624 2.22490
C 2.23613 2.35696 2.90844
C 1.42559 1.72037 3.86021
C 2.15619 4.01393 1.03995
C 3.21989 3.47635 -1.05395
C 3.20604 3.33965 .34108
C 4.74162 -.07902 .44851
C 4.19687 -.64623 1.62443
C 3.44128 .21289 2.54150
C 2.55511 -.43504 3.52063
C 1.62116 .34520 4.19763
C 3.95784 -2.03093 1.59530
C 4.78008 -.79282 -.76960
C 3.65206 -2.54760 -2.02812
C 4.32826 -2.13028 -.84046
C 3.98624 -2.76426 .37064
C 3.80120 2.45352 -1.88971
C 3.25068 -1.54511 -3.03399
C 3.59123 -.17337 -2.88456
C 4.52813 .15157 -1.86250
C 4.54892 1.44130 -1.30130
C .43151 -3.61552 -2.93055
C 1.72196 -3.22532 -3.03845
C 2.02914 -1.91615 -3.57962
C .99077 -.95229 -3.84475
C 2.65175 .81450 -3.33563
C 2.88595 2.14433 -2.92515
C .33175 -3.33675 3.02904
C .91615 -3.89425 1.88816
C .08664 -4.19580 .73259
C 2.18097 -4.04737 -.71690
C .74345 -4.34205 -.56396
C -.04411 -4.26395 -1.71408
C 2.65774 -3.52806 -1.97331
C 2.92546 -3.73182 .41364
C 2.30283 -3.64807 1.71542
