100 

C 2.19052 3.18884 2.37420
C 1.22549 3.85622 1.62353
C -.16743 3.59213 1.92241
C -1.17572 4.14144 1.03392
C -2.51204 3.76102 1.20809
C -.80041 4.55051 -.26783
C 3.55473 2.99997 1.91176
C 3.87835 3.34610 .61364
C 2.86459 3.95325 -.22177
C 1.60848 4.32939 .29470
C .58528 4.53528 -.65486
C -1.56264 4.09398 -1.37399
C -2.83014 3.50434 -1.20215
C -3.39484 3.59372 .09240
C -4.45396 2.70989 .50340
C -4.97628 1.80403 -.40318
C -.65040 3.62498 -2.37156
C -.89107 2.44937 -3.08413
C -2.20123 1.81153 -2.94170
C -3.19129 2.39396 -2.06155
C -4.30664 1.61928 -1.68225
C -1.23726 -.22264 -3.88848
C -2.34469 .43483 -3.31776
C 2.94755 3.35681 -1.51920
C 1.80495 3.21471 -2.32507
C .67626 3.97883 -1.95150
C 1.62050 2.01806 -3.10870
C .27007 1.69460 -3.54472
C .02730 .40882 -4.03854
C -4.87814 -1.74812 -.73023
C -5.44739 .51091 .05113
C -5.17173 -.43332 -1.01789
C -3.38159 -.39556 -2.75579
C -4.41113 .24414 -2.04095
C -3.88029 -2.44529 -1.50227
C -3.11778 -1.80444 -2.49652
C -4.74883 -2.17599 .64728
C -4.80873 -1.23450 1.66226
C -5.23526 .12205 1.37257
C -4.47890 .99294 2.25021
C -4.15606 2.27115 1.85337
C -3.73155 -3.18896 .68603
C -2.78676 -3.22622 1.74494
C -1.65188 -4.01850 1.53700
C -1.00946 -1.61944 -3.67856
C -1.83147 -2.37859 -2.84727
C -1.21295 -3.42708 -2.03109
C -1.96491 -3.91376 -.90411
C -3.27080 -3.41364 -.65073
C -1.28278 -4.44807 .20111
C -3.48698 .20292 2.94327
C 1.82865 2.04840 3.15770
C -.51986 2.49441 2.76713
C -2.18689 .67668 3.19781
C -1.89382 2.05626 2.85943
C -2.88391 2.82402 2.22669
C .50855 1.60920 3.25481
C -2.67661 -2.09391 2.64057
C -3.72124 -1.16491 2.62190
C 1.35380 -.73267 3.39324
C -.47107 -3.81710 2.29415
C -.26254 -2.58971 2.99280
C -1.36970 -1.67497 3.11979
C -1.11017 -.28542 3.35845
C .25270 .19209 3.44880
C 3.39168 -2.42377 2.30051
C 3.72424 -1.08114 2.59213
C 4.74339 -.48800 1.80308
C 4.87656 .93172 1.72059
C 4.02464 1.73902 2.46044
C 2.93463 1.14000 3.18288
C 2.71696 -.24279 3.20992
C 2.14636 -2.95947 2.67946
C 1.08738 -2.12761 3.16344
C 3.81187 -3.04661 1.05298
C 4.14999 -2.43418 -1.26969
C 4.51654 -2.28168 .09156
C 5.04517 -1.03154 .49816
C .58759 -4.41342 1.53550
C 3.06260 -3.27434 -1.63630
C 2.32535 -3.99745 -.68306
C 2.80346 -3.95929 .65680
C 1.87311 -4.03355 1.75941
C .39574 -1.85465 -3.76837
C 2.40398 -2.67662 -2.77239
C 1.01598 -2.84419 -2.99601
C .21179 -3.62691 -2.06178
C .88869 -4.24201 -.92854
C .11726 -4.63446 .17091
C 3.97334 2.35281 -1.50279
C 3.82280 1.15651 -2.21691
C 2.64792 .99644 -3.07567
C 3.05711 -1.45383 -3.06352
C 2.32520 -.32922 -3.54300
C 1.03531 -.59964 -4.01822
C 5.16137 .05339 -.42454
C 5.15958 1.26725 .33563
C 4.62254 2.41422 -.21691
C 4.13674 -1.29305 -2.14254
C 4.53255 -.01771 -1.70490
