100 

C -3.50829 2.64013 -1.93808
C -3.70420 1.39153 -2.57189
C -4.70811 .56202 -2.03700
C -4.70660 -.85999 -2.26846
C -3.71379 -1.41103 -3.05452
C -2.64380 -.56505 -3.55474
C -2.56832 .80252 -3.27513
C -2.26223 3.36379 -2.08055
C -1.12938 2.77962 -2.65941
C -4.52990 -2.70607 -.66820
C -3.52712 -3.31526 -1.51690
C -5.11898 -1.51484 -1.04322
C -3.13716 -2.68700 -2.69419
C -1.74476 -2.64811 -3.03532
C 1.60999 -3.46741 -1.61141
C 2.93355 -3.07955 -1.80715
C .60157 -2.85946 -2.44158
C -.77367 -3.27518 -2.25968
C -1.16965 -3.90206 -1.01390
C -2.52048 -3.88876 -.66687
C .24654 4.30075 -1.31265
C .17588 3.29185 -2.28499
C -1.25288 1.43720 -3.23332
C 1.38241 2.51204 -2.56018
C 1.25704 1.21626 -3.12038
C -.07586 .65610 -3.40111
C -.19923 -.77753 -3.51480
C -1.46100 -1.34796 -3.60617
C 2.40648 .33281 -3.13204
C 2.21815 -1.11205 -3.09317
C .89003 -1.64920 -3.11901
C 3.24392 -1.92541 -2.60259
C -3.43705 -1.88750 2.79526
C -4.34242 -1.90682 1.69081
C -4.12802 -2.89927 .71301
C -2.92283 -3.66940 .70693
C -.56001 -3.75229 1.38637
C -1.95680 -3.51570 1.70568
C -2.27816 -2.67920 2.80529
C 1.77120 -3.46189 1.99485
C .44863 -3.26067 2.30709
C 1.21943 -3.99686 -.31385
C -.17878 -4.01469 .04874
C 2.16848 -3.97100 .71366
C -4.98835 -.65191 1.29366
C -5.36196 -.48522 -.04992
C -3.10029 -.64315 3.47950
C -3.68943 .52155 3.10896
C -4.67959 .53907 2.04144
C -1.68332 -.65802 3.80347
C .78398 2.59483 2.64953
C 1.40090 1.38412 3.08316
C -.83735 .47960 3.64923
C -1.45462 1.72449 3.23877
C -2.88897 1.73264 3.02806
C 1.06611 -1.08180 3.35668
C .56245 .26889 3.47964
C 4.57158 -.45568 2.11469
C 3.35564 -.21118 2.79210
C 2.82384 1.14299 2.82054
C 3.57110 2.14157 2.18947
C .13769 -2.15178 3.19504
C -1.21438 -1.92644 3.47624
C 2.45500 -1.32099 3.00318
C 2.80119 -2.57617 2.48205
C -4.58018 1.78971 1.42656
C -4.80157 1.92522 .02109
C -5.20096 .78942 -.70066
C -4.04608 2.91267 -.67134
C -3.47834 2.53337 2.06596
C -2.70126 3.49194 1.34652
C -3.11247 3.79688 .02951
C -.89266 4.60447 -.50494
C -2.14826 4.20550 -.92605
C -.67141 2.73350 2.64676
C -1.32424 3.68670 1.73389
C 2.91153 3.26863 1.60298
C 1.56403 3.52845 1.85577
C .91184 4.34401 .90426
C -.52216 4.43696 .86291
C 4.61001 2.62902 .15191
C 3.48399 3.51287 .31250
C 2.60858 3.77561 -.76153
C 1.38713 4.36663 -.42290
C 4.81006 2.00962 -1.07100
C 5.64224 -.01551 .06257
C 5.21147 .56458 1.32403
C 4.71651 1.84614 1.36625
C 5.36719 .67333 -1.12025
C 3.94022 -2.75115 1.62716
C 5.40259 -1.44128 .14507
C 4.82668 -1.71016 1.45507
C 4.70314 -.02261 -2.20130
C 4.49494 -1.38230 -2.12843
C 4.90662 -2.13074 -.95922
C 3.94172 -3.20090 -.77655
C 3.53510 -3.56693 .49489
C 2.63448 2.90611 -1.92811
C 3.75503 2.09285 -2.07828
C 3.65330 .83054 -2.72579
