100 

C 3.72005 -.14004 -2.89345
C 4.33645 -.60474 -1.73538
C 4.86082 .39386 -.84208
C 4.95069 .13291 .57850
C 4.70145 -1.11559 1.05010
C 2.68030 -.90773 -3.53523
C 1.04468 -2.63689 -3.46654
C 2.29095 -2.18693 -3.04564
C 2.85858 -2.68931 -1.80638
C 3.93262 -1.91547 -1.18764
C 4.23525 -2.16342 .15093
C 2.35865 -.44662 3.83737
C 3.46422 -.17588 3.00618
C 4.04484 -1.28687 2.33411
C 3.38019 -2.53750 2.29495
C 1.26614 -3.70927 2.56618
C 2.22549 -2.77164 3.07119
C 1.75098 -1.72524 3.88633
C 2.41795 -3.79823 .37575
C 3.46372 -3.06438 .93416
C -1.60622 -4.42349 -.88477
C -.22889 -4.55761 -.55835
C .07483 -4.57920 .80538
C 1.39516 -4.25023 1.28468
C 2.10302 -3.63213 -1.03087
C .33823 -3.64892 -2.74888
C .79280 -4.09916 -1.51001
C 3.58334 1.15669 2.43112
C 4.46018 1.30216 1.29715
C 1.33227 .52963 4.02244
C 1.38261 1.77771 3.43242
C 2.56180 2.12895 2.63505
C 2.47391 3.26750 1.73298
C 1.29566 4.04473 1.75551
C .07712 -.17480 4.19725
C -1.16981 .40751 3.80101
C -1.18080 1.77900 3.42005
C .10754 2.48318 3.25588
C .12986 3.64835 2.52217
C -3.48760 1.48876 2.65013
C -2.37153 2.32706 2.81532
C -.15791 -3.55273 2.84909
C -.65556 -2.41583 3.48268
C .31658 -1.53441 4.08957
C -1.94752 -1.88058 3.09139
C -2.22562 -.48402 3.40084
C -3.38850 .09034 2.88906
C 3.28391 3.31953 .54801
C 4.26869 2.30230 .35471
C .82896 4.71590 .59971
C 1.51260 4.57865 -.60452
C 2.77460 3.95316 -.61811
C -.61738 4.68309 .59016
C -1.31844 4.33692 -.58808
C -2.63547 3.90203 -.42484
C -2.28135 3.49870 1.95776
C -1.04133 4.13147 1.82810
C -3.17056 3.62125 .85595
C 2.92081 3.30985 -1.92639
C 3.77685 2.20091 -2.10444
C 4.53700 1.74900 -.98435
C 3.41000 1.24862 -3.07730
C 1.67332 3.37516 -2.59222
C 1.19218 2.29985 -3.37741
C 2.14037 1.32607 -3.72394
C .35163 -.35708 -4.11718
C 1.72728 -.01336 -4.04124
C .07844 -1.72322 -4.03840
C -.58013 3.89284 -1.77414
C .77926 4.15395 -1.79349
C -1.97110 .14478 -3.44220
C -3.26526 3.02815 -1.40121
C -2.49170 2.35719 -2.37900
C -1.11635 2.79364 -2.60512
C -.23873 1.96797 -3.34703
C -.66765 .61348 -3.75662
C -4.35704 2.40515 -.74799
C -4.77636 1.14868 -1.16743
C -4.09337 .51058 -2.23219
C -2.91765 1.05223 -2.80419
C -2.25056 -1.29691 -3.41986
C -1.22408 -2.18976 -3.72620
C -4.92062 .38366 1.15520
C -4.46622 1.69320 1.59175
C -4.27163 2.70391 .67310
C -5.14342 .13897 -.18537
C -.87517 -4.15260 1.77830
C -2.15104 -3.69233 1.40385
C -2.72426 -2.54564 2.08863
C -4.23804 -2.16921 .08488
C -3.85445 -1.85491 1.46172
C -4.22953 -.60999 1.95647
C -4.77975 -1.14529 -.72924
C -3.55796 -3.19798 -.58904
C -2.55119 -3.99767 .08140
C -1.07094 -3.46723 -3.04672
C -4.23155 -.91922 -2.02361
C -3.34202 -1.81954 -2.60321
C -3.19758 -3.07382 -1.95114
C -2.02092 -3.88225 -2.15691
