100 

C -1.15813 -4.39415 -.98805
C -2.03618 -4.13214 .06073
C -3.27675 -3.51557 -.29805
C -4.08548 -2.79793 .67399
C -3.61728 -2.64573 1.94797
C .23497 -4.60277 -.75394
C .80593 -4.34051 .49566
C -.07708 -3.91609 1.58470
C -1.48273 -3.90393 1.38184
C -2.31164 -3.18411 2.31470
C 1.86333 -2.91074 2.72383
C .48301 -3.11357 2.67791
C 2.74552 -3.34113 1.65822
C 2.23125 -4.00531 .52541
C 2.93948 -3.82833 -.68268
C -4.06292 1.01599 2.43548
C -4.44399 -.26185 2.00997
C -3.78777 -1.37338 2.63686
C -2.65641 -1.18927 3.43985
C -.71715 .27115 3.89200
C -2.12575 .10678 3.69433
C -2.90100 1.20399 3.26280
C 1.25533 1.72463 3.74370
C -.15569 1.57065 3.69302
C -.34889 -2.16954 3.38504
C -1.75608 -2.31096 3.23781
C 2.42163 -1.74846 3.31384
C 1.59173 -.73319 3.83594
C .17127 -.92077 3.84781
C 2.13471 .57695 3.85553
C -4.93302 -.42834 .63574
C -4.72010 -1.67683 -.00860
C -4.16050 2.17214 1.56092
C -4.65187 2.02952 .27908
C -5.02326 .70252 -.19855
C -3.02731 3.00858 1.79329
C -4.04070 2.75140 -.79102
C -2.90710 3.56333 -.58594
C -2.37432 3.68581 .76195
C -.90237 2.60859 3.02813
C -2.27671 2.42462 2.88690
C 1.90833 2.73512 3.04978
C 1.19332 3.58321 2.13284
C -.22825 3.54015 2.12954
C -.97107 4.05854 .97901
C -.25064 4.51281 -.11870
C -4.16145 1.92047 -1.97592
C -4.67660 .62735 -1.58074
C -4.15163 -.56325 -2.13006
C -4.31168 -1.72925 -1.35563
C -3.21450 1.99161 -2.96259
C -2.16806 2.97968 -2.88030
C -.72753 4.28435 -1.47387
C -2.01482 3.76974 -1.71935
C -2.64635 .77624 -3.51513
C -3.02893 -.48914 -3.07706
C -2.05281 -1.56236 -3.17017
C -2.33380 -2.80136 -2.45431
C -3.41480 -2.85962 -1.52875
C -1.30739 -3.71574 -2.25154
C -1.29415 1.05706 -3.86483
C 1.09009 .52167 -3.66638
C -.30220 .08551 -3.83920
C -.70389 -1.28178 -3.57992
C 3.38134 -.08228 -3.07556
C 2.10642 -.48367 -3.50828
C 1.74213 -1.88884 -3.36795
C .34181 -2.27940 -3.38502
C -.00440 -3.50438 -2.80494
C .37918 3.91373 -2.26599
C .27486 2.83276 -3.17880
C -1.01727 2.43233 -3.52123
C 2.63830 2.21926 -2.67782
C 1.37383 1.88130 -3.30428
C 3.62927 1.24222 -2.62658
C .91838 -4.22943 -1.97692
C 2.23134 -3.85787 -1.94835
C 2.66986 -2.75610 -2.75482
C 4.55704 2.09152 -.51621
C 4.59950 1.16844 -1.53166
C 4.83629 -.20544 -1.22788
C 4.23544 -.96157 -2.30790
C 3.86121 -2.25773 -2.11708
C 1.57161 4.08407 -1.46918
C 3.62308 3.20528 -.60321
C 2.70829 3.30721 -1.68886
C 3.25400 2.25338 2.76559
C 3.89418 2.63365 1.62398
C 3.22884 3.55110 .70650
C 1.91709 4.04269 .96455
C 1.17591 4.45709 -.15136
C 3.62722 -1.42627 2.60690
C 4.04366 -.10521 2.44422
C 3.34816 .88025 3.21503
C 3.97161 -2.84790 -.79396
C 4.80387 -.68055 .09946
C 4.36598 -2.06440 .31103
C 3.80635 -2.41704 1.56319
C 4.64435 1.65887 .84281
C 4.67331 .29233 1.17660
