100 

C -2.18566 -3.83577 -1.70894
C -2.98155 -2.77966 -2.18329
C -4.03942 -2.37071 -1.33757
C -4.64657 -1.06863 -1.46550
C -4.19164 -.21207 -2.43487
C -.82578 -4.01764 -2.18746
C 1.14579 -3.05116 -3.12463
C -.24090 -3.07081 -3.08028
C -.98358 -1.87516 -3.46335
C -2.39204 -1.80634 -3.10853
C -3.04007 -.58095 -3.23917
C -3.85675 2.97924 -.55063
C -4.45946 1.74460 -.90231
C -4.11134 1.21103 -2.16311
C -2.98692 1.71569 -2.87441
C -.83892 2.91794 -2.72039
C -2.26775 2.82787 -2.42540
C -2.81401 3.53379 -1.32597
C 1.33305 3.85571 -2.11628
C -.05072 3.88596 -1.97724
C -.93211 .60725 -3.70215
C -2.30630 .61043 -3.51050
C 3.30345 .44923 -3.32094
C 1.94866 .53914 -3.70341
C 1.25074 1.79848 -3.46909
C -.18752 1.83782 -3.40184
C 1.97403 2.86167 -2.90508
C -.26392 -.67653 -3.78698
C 1.85500 -1.90219 -3.59963
C 1.19208 -.69321 -3.84102
C -4.83346 .81904 .16966
C -4.91999 -.56064 -.12859
C -3.59820 3.33113 .83902
C -3.85063 2.41801 1.82669
C -4.49268 1.15573 1.50165
C -2.37943 4.11097 .88752
C -1.41633 3.91930 1.91815
C -.11378 4.34387 1.64039
C -.59263 4.49800 -.75676
C -1.94651 4.29475 -.44273
C .27218 4.74773 .33148
C -3.96212 .17723 2.37870
C -3.85733 -1.17207 2.00870
C -4.47813 -1.54024 .79550
C -2.75860 -1.98367 2.54378
C -2.43728 -3.21996 1.88547
C -1.22113 -3.86212 2.20899
C -2.93745 .80224 3.19397
C -1.82813 .08320 3.65223
C -1.78547 -1.36510 3.41705
C .58151 -1.30029 4.14742
C -.56267 -2.04397 3.69316
C -.29679 -3.28138 3.08327
C -1.60231 2.83818 2.87203
C -2.84614 2.16212 2.84946
C 1.02774 3.73741 2.28244
C .89168 2.65609 3.12750
C -.46840 2.16518 3.43266
C -.62887 .82089 3.90763
C .54797 .07938 4.23952
C -3.02229 -3.53435 .57737
C -3.99925 -2.68598 .04860
C -.45592 -4.61813 1.22885
C -.94891 -4.79585 -.02697
C -2.25226 -4.26624 -.36569
C 1.93491 -3.67729 -2.08958
C -.06919 -4.61598 -1.17129
C 1.31959 -4.29959 -1.00592
C 1.94794 -1.70359 3.78496
C 2.16389 -2.73388 2.85086
C 1.06166 -3.61304 2.61063
C .96193 -4.32878 1.43419
C 2.97539 -3.21526 .51243
C 1.86006 -4.08023 .32334
C 2.74057 -.53232 3.76676
C 3.79838 -.43186 2.86864
C 4.02960 -1.47544 1.92571
C 3.17094 -2.58443 1.82698
C 3.64769 -2.64027 -.65665
C 3.13549 -2.92620 -1.92613
C 3.21500 1.92220 2.39918
C 2.06543 1.79148 3.29622
C 1.88316 .59356 3.97297
C 4.06247 .82549 2.23508
C 3.37168 3.35540 -1.07703
C 2.23332 4.20685 -1.01679
C 1.69749 4.53695 .21081
C 3.85532 2.68814 .06903
C 3.19315 2.93292 1.33978
C 2.16802 3.87979 1.38665
C 4.64382 .86645 -1.43045
C 3.93363 1.48148 -2.54039
C 3.29661 2.67130 -2.35624
C 4.67391 .53354 .94714
C 4.56698 1.42687 -.13456
C 3.15526 -1.94136 -2.99408
C 4.63197 -.86713 .75314
C 4.46022 -1.42573 -.52464
C 4.59296 -.54124 -1.62201
C 3.86568 -.78469 -2.85498
