100 

C -2.26249 -.97509 3.86011
C -3.28590 -.30457 3.17596
C -4.09305 -1.10414 2.32626
C -4.91646 -.51661 1.31650
C -4.89053 .85296 1.14394
C -3.98514 1.65679 1.93008
C -3.11956 1.10500 2.89903
C -1.15479 -.27472 4.37985
C -.87269 1.06185 3.96859
C -4.91309 -.86900 -1.11766
C -4.88707 .58122 -1.30542
C -4.89067 -1.40441 .15455
C -4.91306 1.41555 -.20590
C -4.08689 2.58207 -.20114
C -3.27744 2.91670 -1.31754
C -2.25226 3.84219 -1.07791
C 1.50400 .56402 4.40442
C .51378 1.49222 3.97978
C -1.84854 1.75993 3.18079
C -.04514 3.30584 2.33082
C -1.43315 2.91075 2.38180
C -2.32563 3.39116 1.35850
C -3.56482 2.74985 1.12960
C -1.81849 4.13756 .27326
C -2.25413 -2.84247 -2.77944
C -3.28024 -2.58556 -1.85961
C -4.08665 -1.44973 -2.12912
C -3.11155 1.97175 -2.39942
C -3.97944 .85839 -2.39349
C -3.56104 -.38211 -2.93907
C -1.83966 1.88599 -3.10587
C -2.32115 -.50680 -3.60723
C -1.81677 -1.82086 -3.71018
C -3.11777 -3.05085 -.50013
C -3.98603 -2.48743 .45987
C -.09748 -3.28794 -3.34451
C -1.14731 -3.64301 -2.43024
C -.86908 -3.95553 -1.06664
C 1.20206 -3.52524 -3.00643
C 2.21431 -2.55764 -3.35785
C 2.74351 -.25096 -3.72065
C 1.85003 -1.30447 -3.92297
C .93342 1.44198 -3.83046
C .44436 -.98800 -4.15658
C -.46804 -2.05477 -4.01370
C 2.30488 1.10883 -3.78110
C -.03816 .37329 -4.01699
C -1.14304 3.94024 -1.94300
C -.86173 2.91534 -2.89428
C -1.42614 .61781 -3.70209
C .52494 2.70695 -3.27065
C 1.51623 3.53658 -2.67797
C 1.50950 -4.08368 -1.70958
C .51645 -4.18031 -.69603
C -1.84793 -3.62248 -.07067
C -.04923 -3.65946 1.69759
C -1.43643 -3.50608 1.32640
C -2.33152 -2.86001 2.25165
C -3.56948 -2.34082 1.80757
C -1.82766 -2.29325 3.44193
C 2.83169 -3.65695 -1.41412
C 3.22389 -3.52586 -.10156
C 2.29467 -3.82760 .94551
C .92311 -4.03398 .68001
C .43271 -3.10090 2.94687
C -.47967 -2.44193 3.79800
C 3.80128 -.34696 -2.75761
C 3.95226 -1.49614 -1.95934
C 3.23859 -2.64703 -2.37720
C 2.73330 -3.09638 2.09336
C 1.83910 -2.74318 3.10569
C 2.20468 -1.62784 3.90848
C 1.19299 -.83753 4.56900
C -.10745 -1.24624 4.53115
C 3.79353 -2.21656 1.69629
C 3.94666 -.95101 2.29242
C 3.23163 -.73606 3.49691
C 4.04757 .95294 -2.23445
C 4.31729 1.16102 -.86141
C 4.45273 .00354 .00974
C 4.31504 -1.32927 -.55701
C 4.04136 -2.41379 .30939
C 4.04181 1.47244 1.95253
C 4.31333 .17924 1.44718
C 3.24111 3.39651 -1.09547
C 2.83792 3.06726 -2.45258
C 3.23192 1.86495 -2.99404
C 3.79773 2.57559 1.08782
C 3.95268 2.45899 -.30595
C -.09526 4.55452 -1.17584
C 2.73843 3.36153 1.64954
C 1.84712 4.06372 .83613
C 2.21511 4.20101 -.53058
C 1.20539 4.38037 -1.54691
C 2.82704 .60380 3.88906
C 3.22292 1.67410 3.11978
C 2.29652 2.73373 2.85607
C .92427 2.60980 3.16549
C .44029 4.10768 1.22320
C -.46959 4.51747 .22576
