100 

C -4.29800 -1.15262 1.98166
C -4.57165 .15445 1.54868
C -5.07867 .28581 .23083
C -4.98541 1.53692 -.48528
C -4.44295 2.63417 .14499
C -3.30242 -1.40874 3.00727
C -1.26520 -.71915 4.05418
C -2.51564 -.35501 3.52973
C -2.72002 1.00887 3.07083
C -3.83538 1.27152 2.15028
C -3.87167 2.48912 1.47468
C -3.74642 2.07930 -2.53514
C -3.24801 3.28239 -1.89929
C -4.62742 1.24266 -1.86014
C -3.61041 3.56475 -.59372
C -2.61073 4.07372 .31379
C -1.31678 4.40200 -.12033
C -.32632 4.48645 .88953
C -.19071 .21838 4.12127
C -.32414 1.51189 3.66481
C -1.64318 1.94460 3.18090
C -1.71041 3.18018 2.43364
C -2.79577 3.42650 1.58656
C -.51295 3.88033 2.14223
C -3.46385 -.75518 -2.73539
C -2.50537 .12237 -3.39150
C -4.48799 -.17400 -1.98123
C -2.67637 1.50106 -3.28449
C -1.52503 2.37556 -3.17768
C -.22062 1.90736 -3.28863
C -.01877 .50223 -3.64343
C -1.16676 -.36092 -3.70690
C -.97038 -1.74768 -3.65947
C 2.42400 .79601 -3.18774
C 1.29441 -.06141 -3.53731
C 1.44847 -1.48035 -3.41326
C .31133 -2.29198 -3.48731
C 3.64883 .18766 -2.87968
C 2.19044 2.15076 -2.72997
C .83050 2.67136 -2.66530
C 3.18428 2.77613 -1.96819
C -.89666 4.00809 -1.46534
C -1.86465 3.45282 -2.30424
C 1.07950 4.43896 .56194
C 1.49320 4.10509 -.74640
C .49398 3.69686 -1.72907
C 2.81036 3.65371 -.88532
C -1.93736 -2.63721 -3.03000
C -3.09277 -2.14157 -2.43271
C -3.58579 -2.79111 -1.22322
C -1.20546 -3.73542 -2.47568
C -1.62674 -4.30567 -1.28803
C -2.84795 -3.86312 -.68759
C .19236 -3.51143 -2.70097
C -.65371 -4.54965 -.24913
C .69871 -4.28154 -.43077
C 1.14911 -3.80957 -1.73625
C 3.73898 -1.23757 -2.62777
C 2.62107 -2.05283 -2.76842
C 2.45658 -3.17478 -1.86546
C 3.34992 -3.30695 -.79915
C -4.42677 -2.02614 -.30784
C -4.88925 -.76579 -.70819
C -2.68900 -4.02775 .74922
C -3.40079 -3.23980 1.61053
C -4.31743 -2.25121 1.08961
C -.70069 -2.00024 3.80649
C -2.74748 -2.68880 2.77597
C -1.37508 -2.95045 3.03679
C -1.29213 -4.33295 1.02238
C 2.82704 -3.58115 .53861
C 1.48288 -3.95137 .74543
C .84432 -3.57507 1.96623
C -.60332 -3.76316 2.09299
C 1.52451 -2.63830 2.83217
C .73662 -1.85054 3.72855
C 4.61365 -2.13138 .75031
C 3.52713 -2.78599 1.45773
C 2.82565 -2.15306 2.51643
C 5.02159 -.87733 1.13696
C 4.29315 -.19070 2.19547
C 3.19979 -.78399 2.86443
C 5.25133 -.17105 -1.20406
C 4.72043 -1.45944 -1.60723
C 4.48136 -2.44840 -.65734
C 5.42134 .10678 .15042
C 4.63405 2.40620 -.18172
C 4.38434 2.09901 -1.57603
C 4.63749 .82870 -2.05869
C 5.04159 1.40313 .67397
C 1.76424 3.87797 1.66624
C 2.99238 3.21686 1.51122
C 3.61732 3.34203 .24696
C 1.04969 -.51694 3.97413
C 2.22524 .08591 3.44189
C 2.19096 1.48402 3.12852
C .91316 2.21059 3.26397
C .77649 3.41403 2.60388
C 4.31120 1.19254 1.92355
C 3.24082 2.03295 2.31716
