100 

C -2.58048 -2.82105 -2.83943
C -3.75673 -2.31675 -2.35706
C -4.07780 -.92882 -2.57029
C -4.19553 1.70951 -1.66041
C -1.99405 2.19213 -2.59879
C -3.16108 1.35149 -2.53834
C -3.10045 -.02291 -3.02252
C .32730 2.47125 -3.30856
C -.81176 1.69036 -3.30002
C -.66037 .27694 -3.58669
C -1.83218 -.56040 -3.49959
C -1.64244 -1.94471 -3.48297
C -1.15043 -4.45130 .13213
C -2.18909 -4.04315 -.73192
C -1.84002 -3.80128 -2.07675
C -.46564 -3.66316 -2.43607
C 1.84917 -3.31554 -1.67348
C .56678 -3.99976 -1.55761
C .18329 -4.56212 -.30873
C 3.98243 -2.72858 -.64098
C 2.81152 -3.47750 -.59856
C 1.63019 1.91102 -3.49676
C 1.82026 .52664 -3.50210
C .64847 -.31139 -3.58362
C .79928 -1.72240 -3.28518
C -.33986 -2.50333 -3.28866
C 3.08811 -.00675 -3.01894
C 3.14795 -1.37726 -2.52351
C 1.98081 -2.21827 -2.57854
C 4.18119 -1.72851 -1.64134
C -3.34686 -3.36640 -.15531
C -4.22315 -2.69910 -1.03084
C -5.08677 -1.65323 -.57520
C -3.27553 -2.91011 1.22358
C -4.16578 -1.93704 1.65362
C -5.12852 -1.33774 .77765
C .23335 -3.96958 1.93953
C -1.12097 -3.99519 1.51703
C -2.03604 -3.07116 1.98940
C 2.09072 -2.77953 2.84806
C .69680 -2.96157 2.80517
C -1.56325 -1.99996 2.86712
C 2.35682 -3.94210 .71466
C 1.04354 -4.38654 .84256
C 2.93744 -3.36058 1.87829
C -3.99521 1.46520 2.71010
C -5.33540 .03141 1.21185
C -4.54448 .22016 2.41851
C -.18676 -1.88177 3.17998
C -2.43653 -.87392 3.11169
C -3.76702 -.94518 2.64481
C -2.68933 1.54343 3.25929
C .39864 -.55890 3.47229
C -1.87163 .40892 3.42320
C -4.15332 2.56300 1.77147
C -4.72493 2.32189 .53874
C -5.37501 1.05148 .26723
C -5.11932 .73439 -1.12681
C -5.03227 -.57110 -1.54884
C -2.95633 3.36949 1.84766
C -2.37431 3.94178 .68026
C -1.06125 4.38770 .80607
C 1.54289 2.01752 2.85280
C -.71687 2.97870 2.78047
C -2.11070 2.79647 2.82328
C 2.01673 3.08202 1.96725
C 1.10242 4.00250 1.48636
C -.25245 3.97997 1.90739
C .16605 1.90191 3.16499
C 2.66840 -1.52272 3.27445
C 1.85040 -.38690 3.42825
C -.41989 .58148 3.46729
C 2.41580 .89337 3.10727
C 3.74683 .96066 2.64151
C -2.82733 3.46687 -.62980
C -3.99814 2.71764 -.66777
C -.19945 4.55412 -.34559
C -.58130 3.98170 -1.59048
C -1.86353 3.29672 -1.70231
C .45208 3.63792 -2.46521
C 1.13371 4.44726 .09766
C 2.17329 4.03193 -.76195
C 1.82596 3.77886 -2.10520
C 5.11059 1.33846 .77326
C 4.14662 1.94487 1.64301
C 3.25699 2.91475 1.20412
C 5.07074 1.64311 -.58209
C 4.20765 2.68531 -1.04716
C 3.33021 3.35982 -.17838
C 3.97506 -1.44900 2.72676
C 5.31705 -.02723 1.21867
C 4.52462 -.20627 2.42574
C 5.01782 .55307 -1.54704
C 5.10431 -.74917 -1.11449
C 5.35795 -1.05505 .28254
C 4.70749 -2.32329 .56349
C 4.13452 -2.55466 1.79758
C 2.56736 2.79237 -2.85892
C 3.74313 2.29225 -2.37098
C 4.06482 .90267 -2.57265
