100 

C 3.48189 1.15186 2.83627
C 2.81054 2.36662 2.66134
C 3.26630 3.21061 1.60915
C 2.34327 4.10928 .95868
C 1.13312 4.36493 1.53035
C 2.79101 .00021 3.34515
C 1.41564 .00283 3.60493
C .70343 1.27532 3.53172
C 1.42537 2.45720 3.11334
C .69479 3.58025 2.68928
C -1.44634 .00697 3.59535
C -.72961 1.27752 3.52651
C -1.44499 2.46240 3.10369
C -.70842 3.58463 2.68561
C -2.82031 .00842 3.32744
C -1.45230 -2.45032 3.11326
C .68372 -3.57640 2.70310
C 1.41745 -2.45375 3.12267
C .69943 -1.26788 3.53661
C -.73348 -1.26604 3.53131
C -.71942 -3.57653 2.69948
C -2.34497 4.11834 .94478
C .00087 4.62117 .69502
C -1.13855 4.37432 1.52452
C -3.27656 3.22312 1.58990
C -3.50392 1.16259 2.81498
C -2.82732 2.37551 2.64274
C -2.42620 3.92404 -.47661
C -1.24656 3.82673 -1.27361
C .00322 4.23484 -.67458
C 1.25611 3.82178 -1.26662
C 2.43309 3.92265 -.46358
C .00664 2.55057 -2.99922
C 1.26675 2.96194 -2.41434
C 2.50835 2.23053 -2.73129
C 2.44883 1.15031 -3.61794
C -2.49791 2.24183 -2.74786
C -1.25464 2.96702 -2.42200
C -2.43476 1.15743 -3.62861
C -1.17596 .70282 -4.14706
C .00725 1.41662 -3.91063
C 1.18958 .69839 -4.13572
C -3.56129 3.11623 -.70605
C -4.50779 1.16244 -1.74831
C -3.63590 2.27674 -1.83738
C -4.51682 .72808 1.90899
C -4.75459 1.45079 .71330
C -4.11300 2.70906 .57085
C -5.02623 .71578 -.47666
C 3.63945 2.26308 -1.81401
C 3.56896 3.11072 -.68685
C 3.27435 -.01373 -3.45807
C 4.28923 -.01355 -2.51778
C 4.51262 1.14894 -1.72221
C 3.55971 -3.12870 -.67480
C 4.50940 -1.17380 -1.71785
C 3.63292 -2.28569 -1.80512
C -1.17800 -.71889 -4.14431
C .00299 -1.43526 -3.90459
C 1.18739 -.72166 -4.13252
C 2.44506 -1.17557 -3.61272
C 1.25771 -2.97895 -2.40228
C 2.50160 -2.25270 -2.72198
C 5.02234 .70106 -.44773
C 4.74468 1.43596 .74111
C 4.11002 2.69873 .59506
C 4.49632 .71426 1.93456
C 5.02009 -.72259 -.44484
C 4.10172 -2.71332 .60559
C 4.73986 -1.45188 .74683
C 4.49362 -.72472 1.93733
C 3.47756 -1.15562 2.84103
C 3.25606 -3.21862 1.62154
C 2.80261 -2.36902 2.67052
C 2.33077 -4.11731 .97443
C -.01322 -4.62339 .71312
C 1.11985 -4.36713 1.54702
C -2.43814 -1.16814 -3.62412
C -2.50436 -2.24909 -2.73888
C -1.26342 -2.97672 -2.41002
C -.00112 -2.56582 -2.98873
C -2.43799 -3.92327 -.46137
C -1.25799 -3.83245 -1.25860
C -.00951 -4.24211 -.65800
C 1.24459 -3.83478 -1.25161
C 2.42142 -3.93649 -.44848
C -4.51115 -1.16033 -1.74378
C -4.28872 -.00080 -2.54392
C -3.26481 -.00394 -3.47536
C -3.57050 -3.11279 -.69389
C -3.64248 -2.27741 -1.82846
C -4.51894 -.71145 1.91193
C -4.12095 -2.69892 .58145
C -4.75875 -1.43824 .71906
C -5.02828 -.70721 -.47382
C -1.15190 -4.36962 1.54156
C -2.35736 -4.11239 .96054
C -3.28599 -3.21160 1.60239
C -2.83434 -2.36117 2.65198
C -3.50721 -1.14576 2.81958
