100 

C -5.03042 .96824 .67657
C -3.73402 -.90892 -2.82142
C -4.51457 -.38196 -1.77810
C -4.62457 1.02629 -1.72421
C -4.82784 1.70193 -.45408
C -2.88451 -.08096 -3.59568
C -2.31708 3.70270 -1.94307
C -3.98962 2.87169 -.40911
C -3.49770 3.04722 -1.74191
C -1.72011 -.84712 -3.99236
C -2.79457 1.29446 -3.35948
C -3.78483 1.85499 -2.51634
C -1.35085 3.19592 -2.90724
C -.42321 -.30204 -3.97060
C -1.48323 1.93547 -3.48816
C -1.59789 4.22454 -.81954
C -1.90940 3.82925 .48981
C -3.16606 3.13719 .70691
C -3.35380 2.33269 1.90260
C -4.38296 1.36411 1.90546
C -4.31448 .18801 2.72072
C -2.24996 2.16928 2.82559
C -2.27222 1.07123 3.69611
C -3.27971 .05473 3.62468
C .20509 2.30662 3.23101
C 1.45698 2.83306 2.90251
C .51467 4.11672 1.05618
C -.80697 3.69968 1.44978
C -.96481 2.82531 2.57850
C 1.61552 3.75616 1.86274
C -.23336 4.36593 -1.25088
C 2.10470 4.11064 -.86194
C .80757 4.41100 -.34074
C .42284 -2.56444 -3.56816
C .69384 -1.19769 -3.76775
C -.27393 1.12979 -3.71729
C 2.16318 .71927 -3.19485
C 1.00493 1.63429 -3.36057
C 1.08870 2.96972 -2.79142
C -.08074 3.68375 -2.51153
C 2.22626 3.36443 -2.04338
C -4.05016 -2.16581 2.04469
C -2.99756 -2.31176 3.03812
C -4.72601 -.95931 1.91377
C -2.63419 -1.23647 3.82062
C -1.23622 -.99782 4.07658
C 2.15294 -2.11153 2.90139
C 3.42984 -1.56242 2.75881
C 1.11646 -1.29795 3.52438
C -.22130 -1.83116 3.59228
C -.60161 -2.95429 2.74172
C -1.96443 -3.14762 2.47519
C .18709 .97852 3.83789
C -1.04229 .41953 4.09388
C 2.68038 2.04573 3.02771
C 2.61695 .67852 3.39229
C 1.33203 .09390 3.72742
C 3.65492 -.15002 2.96050
C -4.67270 -1.17108 -.55532
C -3.93040 -2.41322 -.41354
C -5.06985 -.48767 .61350
C -3.65782 -2.88346 .87612
C -1.89486 -3.71418 -1.20025
C -3.07221 -2.89726 -1.50174
C -3.10547 -2.21134 -2.71642
C -.91298 -3.85283 -2.17646
C -.90422 -3.03059 -3.35169
C -1.96902 -2.18990 -3.59093
C -2.39736 -3.55582 1.17902
C -.09447 -4.03118 .56942
C -1.49143 -3.91464 .19810
C 2.23419 -4.07756 -.22143
C .87563 -4.25190 -.48624
C .46920 -4.10716 -1.83318
C 1.76903 -3.21416 2.03402
C .35356 -3.51161 1.82319
C 2.69030 -3.65458 1.08082
C 4.22155 -2.91911 -.51746
C 3.11652 -3.53403 -1.20760
C 2.56429 -2.94752 -2.36651
C 1.27916 -3.37654 -2.72676
C 4.76458 -1.75515 -1.02603
C 5.05294 -.84969 1.23628
C 4.35107 -2.00764 1.75236
C 3.97249 -3.03224 .90487
C 5.24158 -.72170 -.13042
C 3.60187 2.49321 2.06514
C 4.49689 1.58155 1.42749
C 4.61861 .30361 2.00497
C 4.00801 2.74946 -.70346
C 3.20508 3.73943 .00222
C 2.97151 3.59162 1.34187
C 4.98533 .55772 -.76261
C 4.69800 1.70921 -.01574
C 2.98017 -1.60984 -2.77114
C 1.99610 -.67777 -3.34953
C 4.11843 -1.10072 -2.15264
C 4.29930 .30729 -2.00338
C 3.36248 1.20990 -2.51792
C 3.37834 2.50284 -1.93385
