100 

C -4.50101 -1.68114 -1.18288
C -4.50123 -1.79305 .24505
C -4.99257 -.67893 .97867
C -4.62380 -.46952 2.32085
C -3.78650 -1.39626 2.96148
C -3.64515 -2.44302 -1.96152
C -2.65565 -3.30393 -1.37092
C -2.59708 -3.41423 .04564
C -3.56497 -2.68869 .86137
C -3.27391 -2.49560 2.23501
C -.34399 -4.36465 -.13558
C -1.36085 -3.89468 .67412
C -.37248 -4.18340 -1.55824
C -1.48630 -3.60878 -2.18068
C -1.22838 -2.85622 -3.36003
C -3.36285 1.39196 3.29848
C -2.53854 .43520 4.02152
C -4.39699 .95733 2.50652
C -2.74734 -.92213 3.86668
C -1.60622 -1.78584 3.72083
C 2.11135 -1.60646 3.23446
C 3.10958 -2.34209 2.59600
C .75128 -2.12962 3.22778
C -.28936 -1.31836 3.80131
C -.07640 .11185 3.96428
C -1.19115 .94212 4.03507
C -.98636 -3.43157 2.01819
C -1.95059 -2.79031 2.76487
C 1.04395 -4.34268 .28003
C 1.42392 -3.79820 1.52975
C .40412 -3.21634 2.37529
C 2.75013 -3.38141 1.66274
C -.39967 4.30047 -1.13423
C -1.57068 4.05133 -.42515
C -4.64460 1.61684 1.24026
C -2.49076 2.46356 2.83443
C -2.65760 3.09682 1.60374
C -3.82687 2.70647 .79477
C -1.48700 3.70143 .98311
C -1.18269 2.21159 3.34868
C 1.21487 2.00375 2.99211
C -.03756 2.69560 2.73091
C -.18949 3.55637 1.58014
C 3.58159 1.71381 2.47491
C 2.41750 2.47545 2.34230
C 2.32346 3.42928 1.25054
C 1.01120 3.92135 .83749
C .86690 4.37456 -.47590
C 2.32500 -.17788 3.42445
C 1.18406 .70057 3.56140
C 3.53380 .38067 3.01240
C -3.80027 2.94221 -.58016
C -2.67087 3.59475 -1.19719
C -.19370 3.72238 -2.43627
C -1.15900 2.90010 -3.00494
C -2.46665 3.02294 -2.46539
C -.74816 1.65363 -3.63391
C -1.77128 .65312 -3.86566
C -1.35255 -.64497 -4.15126
C 3.08966 3.62455 -1.08655
C 1.85955 4.06175 -1.47058
C 1.20123 3.44401 -2.58849
C 1.63914 2.21339 -3.08629
C .64394 1.28284 -3.60833
C 3.38044 3.46864 .31905
C -4.32134 1.99149 -1.51613
C -4.90397 .79321 -1.06240
C -5.10442 .64229 .33637
C -4.69905 -.37816 -1.84306
C -3.46082 1.99608 -2.66253
C -3.14198 .82398 -3.34422
C -3.90225 -.34262 -2.99624
C -2.14140 -1.81360 -3.78639
C -3.34031 -1.66446 -3.15962
C 4.71682 2.00751 -.93223
C 3.72105 2.55582 -1.81747
C 2.95890 1.74382 -2.68149
C 5.08972 .69077 -1.06481
C 4.36237 -.15123 -1.98985
C 3.26957 .32082 -2.73419
C 2.26954 -.62440 -3.16430
C 1.01612 -.10693 -3.73955
C .01498 -1.01652 -4.05994
C 5.20864 .42673 1.37343
C 4.64858 1.75962 1.50380
C 4.49958 2.56743 .39600
C 5.44128 -.09738 .10133
C 4.62362 -2.29481 .82057
C 4.32785 -1.73834 2.12417
C 4.56418 -.39946 2.37089
C 5.07348 -1.46519 -.18965
C 1.83427 -4.09304 -.85727
C 3.06403 -3.40774 -.76604
C 3.61484 -3.28476 .52580
C .08219 -2.40021 -3.62822
C 2.34668 -1.98372 -2.72465
C 1.19314 -2.86486 -2.90451
C .95470 -3.90740 -1.98993
C 4.38692 -1.48224 -1.47576
C 3.36352 -2.38125 -1.76594
