100 

C -3.59788 1.45926 -2.52521
C -3.91793 .08224 -2.44808
C -4.80957 -.31001 -1.43147
C -4.83089 -1.66860 -.94103
C -4.04390 -2.62084 -1.54528
C -2.34116 1.89522 -3.08548
C -1.35275 1.00894 -3.47771
C -1.65586 -.43287 -3.44141
C -2.95142 -.87322 -2.97509
C -3.11260 -2.22055 -2.58718
C .78104 -.89383 -3.76698
C -.57562 -1.36806 -3.51050
C -.74694 -2.69405 -2.98002
C -2.00572 -3.08518 -2.52184
C 1.83848 -1.78684 -3.58012
C 1.07484 .53642 -3.77139
C .03214 1.48963 -3.50458
C 2.40863 .94272 -3.60982
C -4.22669 -2.51622 1.27753
C -3.48415 -3.59196 .64770
C -4.92907 -1.61717 .50786
C -3.40420 -3.65218 -.74752
C -2.15585 -3.95460 -1.35464
C -2.30884 -3.80962 1.41873
C -1.09474 -4.18950 .83985
C -1.02536 -4.29087 -.59764
C 1.65546 -3.04443 -2.89392
C .39208 -3.45453 -2.48977
C .26650 -4.20883 -1.25653
C 1.40361 -4.39755 -.47077
C -3.94411 1.63520 2.02228
C -4.25333 .25308 2.00497
C -4.97971 -.22308 .89465
C -3.44402 -2.03699 2.40650
C -3.37769 -.65428 2.73633
C -1.12515 -1.08685 3.66326
C -2.19572 -.16490 3.37351
C -1.89429 1.27728 3.34665
C -2.78593 2.12285 2.72139
C .11270 -.56885 4.11550
C -2.31602 -2.86474 2.52707
C 1.33083 -4.22686 .96964
C .12953 -3.95765 1.60389
C .12912 -3.04854 2.75052
C -1.12067 -2.40407 3.11352
C 1.35594 -2.48197 3.19477
C 1.30364 -1.27717 3.97008
C -5.03724 .56281 -.30731
C -4.16298 2.46738 .90798
C -4.59156 1.89848 -.32632
C -3.16328 3.53012 .93733
C -2.60229 4.04447 -.27753
C -1.30266 4.57941 -.20942
C -2.34591 3.33312 2.06075
C .40501 .85952 4.05183
C -.51484 1.76025 3.53597
C -.01457 2.92349 2.83873
C -.97328 3.72393 2.07681
C -.53207 4.49912 1.00608
C -3.98264 2.37267 -1.53081
C -2.99681 3.44539 -1.50457
C -.39461 4.45989 -1.30401
C -.68850 3.59535 -2.37424
C -2.02708 3.16797 -2.49458
C 1.73871 3.06455 -2.58405
C .36602 2.77012 -2.95165
C 2.73508 2.17477 -2.97966
C .94382 4.52009 -.76757
C 3.15849 3.63907 -.62857
C 2.01887 3.91242 -1.42401
C 1.79718 1.02357 3.88196
C 2.31289 2.04377 3.07055
C 1.39191 3.03472 2.55883
C 1.82387 3.85914 1.42809
C .85757 4.51697 .64892
C 3.04532 3.57700 .78270
C 4.58513 1.94517 .14407
C 4.13615 2.65367 -1.03264
C 3.95530 1.96839 -2.20296
C 4.73425 -.13418 1.33027
C 4.85772 .55724 .10798
C 2.38720 -.30184 3.93573
C 3.53239 -.56914 3.24644
C 4.15767 .47707 2.46825
C 3.58781 1.77591 2.39041
C 3.92615 2.52994 1.26110
C 2.56760 -3.64160 1.40539
C 2.60133 -2.77598 2.50148
C 3.66319 -1.82089 2.52128
C 2.82681 -3.30002 -2.10496
C 2.69138 -3.94086 -.89106
C 4.22843 -2.29567 .16748
C 3.40343 -3.43249 .25988
C 4.42042 -1.55931 1.36528
C 4.31136 .56674 -2.28403
C 3.45842 .00087 -3.28963
C 3.17468 -1.33674 -3.26849
C 4.68714 -.17622 -1.15029
C 4.37457 -1.60778 -1.12160
C 3.72358 -2.16918 -2.23341
