100 

C -.83235 4.64093 .67271
C -2.03977 4.06999 1.12514
C -3.02628 3.86262 .14241
C -4.13981 2.97687 .36915
C -4.19862 2.25971 1.55069
C .38621 4.51967 1.43741
C 1.73299 3.14514 2.86477
C .45203 3.62739 2.51953
C -.72062 2.82410 2.87398
C -1.99402 3.18067 2.28279
C -3.07320 2.31546 2.46715
C -4.92486 1.02462 -.89888
C -5.13005 .31238 .35890
C -4.41961 2.30393 -.88872
C -4.69004 .89462 1.54200
C -3.86795 .12787 2.42760
C -4.87976 -1.07485 .12390
C -4.15228 -1.86166 1.03405
C -3.57593 -1.21149 2.20165
C 1.88699 1.88277 3.54352
C .80640 1.02464 3.73211
C -.53735 1.51936 3.43876
C -1.61607 .56352 3.40140
C -2.87374 1.01153 3.00573
C -.02800 -1.37265 3.57660
C -1.36288 -.88408 3.38639
C -2.36681 -1.74925 2.82476
C -2.02006 -3.06859 2.50009
C -3.91409 -2.27133 -1.77765
C -4.45060 .09210 -1.88034
C -4.64274 -1.22137 -1.30934
C -3.46752 -3.30826 -.87291
C -2.57962 -3.73136 1.32117
C -3.53891 -3.08916 .52960
C -2.88378 -2.04393 -2.76115
C -2.50664 -.74253 -3.14473
C -3.33502 .37571 -2.69617
C -2.77596 1.71376 -2.65270
C -3.39159 2.65994 -1.82490
C -1.15905 -.53031 -3.57645
C -.66590 .85450 -3.66736
C -1.40150 1.95244 -3.08737
C .68074 1.05595 -3.95007
C -1.92568 -3.07108 -2.59864
C -.59616 -2.88765 -2.95890
C -.22486 -1.62704 -3.55972
C 2.14608 -2.25309 -3.23949
C 1.19341 -1.36269 -3.75199
C 1.62524 -.04332 -3.98564
C 1.06667 -4.81858 -.20116
C .05325 -4.51779 -1.12992
C .40659 -3.75056 -2.31682
C 1.74962 -3.44498 -2.52719
C -2.30459 -3.87886 -1.44050
C -1.56913 -4.54588 .75149
C -1.32294 -4.49495 -.64572
C 1.37631 2.22427 -3.54505
C .74230 3.21475 -2.79745
C -.69246 3.11635 -2.62777
C -1.31503 3.97375 -1.62925
C -2.62355 3.71891 -1.22764
C -.49932 4.66110 -.69441
C 2.76659 1.84507 -3.32574
C 3.49299 2.44206 -2.33941
C 2.92368 3.55383 -1.61108
C 1.57075 3.97740 -1.84584
C .93887 4.64750 -.80299
C 3.34960 -1.75901 -2.64433
C 3.66574 -.39831 -2.66510
C 2.87876 .41544 -3.53082
C 3.46322 3.51761 -.31855
C 2.71459 4.00913 .79095
C 1.48176 4.63740 .52654
C 2.85636 3.34365 2.03377
C 4.27324 2.29496 -.19029
C 4.33232 1.56891 1.04339
C 3.73804 2.18173 2.17484
C 3.66764 -2.57758 -1.51166
C 4.10558 -2.00729 -.31480
C 4.42379 -.57141 -.29313
C 4.28217 .19088 -1.48646
C 4.27014 1.62972 -1.40542
C 4.14555 -.58544 2.16559
C 4.46816 .13340 .99443
C 2.91182 -3.84788 .87998
C 2.40758 -4.35783 -.38311
C 2.75413 -3.70807 -1.54290
C 3.72032 -1.96784 2.11884
C 3.74353 -2.70266 .92490
C -.46494 -4.55914 1.68201
C 2.67173 -2.14029 3.05747
C 1.66852 -3.09165 2.86314
C 1.90923 -4.06442 1.86258
C .80579 -4.75849 1.22541
C 3.19917 1.39056 3.21349
C 3.42970 .02753 3.22834
C 2.37645 -.85750 3.64851
C 1.06076 -.41368 3.80212
C .29808 -2.72647 3.20991
C -.72360 -3.55667 2.70720
