100 

C -2.83273 3.19992 1.75217
C -3.95206 2.80521 .99694
C -4.62985 1.57283 1.24379
C -2.34947 2.30471 2.79238
C -3.07374 1.14785 3.05654
C -4.23054 .78089 2.30002
C 1.21807 3.37397 2.74770
C -.18287 3.42466 2.78964
C -.94373 2.31593 3.18612
C 1.92032 2.19596 3.07415
C 1.17157 1.04422 3.50642
C -.26063 1.10315 3.56119
C -1.03370 -.14155 3.63022
C -2.40542 -.06599 3.45959
C 3.17979 -.33975 3.17657
C 1.83646 -.26603 3.54399
C 3.86333 .77481 2.56383
C 3.25567 2.04670 2.50294
C 3.67068 2.90044 1.46074
C -4.13106 -2.60903 .76553
C -4.63492 -1.29924 .97760
C -4.25544 -.66604 2.17986
C -3.17096 -1.17576 2.95154
C -1.13257 -2.55051 2.93931
C -2.54656 -2.38629 2.63501
C -3.14895 -3.16515 1.61498
C .94926 -3.72701 2.46592
C -.43135 -3.66510 2.32701
C 1.67424 -2.68959 3.11573
C -.39053 -1.44357 3.46684
C 1.04632 -1.49936 3.51073
C -4.93552 -.46541 -.19235
C -4.94809 .94393 -.03992
C -3.88782 -3.12210 -.57653
C -4.04478 -2.29082 -1.65626
C -4.60383 -.96155 -1.47462
C -2.74630 -3.99989 -.52452
C -1.75954 -3.98637 -1.54181
C -.50203 -4.50597 -1.19945
C -1.02342 -4.37154 1.18716
C -2.34511 -4.08838 .83448
C -.17266 -4.81429 .13979
C -3.99587 -.11030 -2.43664
C -3.84873 1.26378 -2.22020
C -4.48587 1.79949 -1.06733
C -3.98394 3.01260 -.44114
C -3.00040 3.73477 -1.05156
C -2.97674 -.86015 -3.13761
C -1.80660 -.26765 -3.57883
C -1.65170 1.19381 -3.42388
C -2.67598 1.93613 -2.77592
C -2.35235 3.22385 -2.25354
C .73448 .94685 -3.98225
C -.32920 1.77429 -3.53951
C -1.83617 -2.97836 -2.59205
C -2.99950 -2.21039 -2.65964
C .70677 -4.07321 -1.88094
C .67427 -3.02573 -2.83298
C -.61797 -2.44028 -3.18394
C -.64842 -1.12787 -3.73180
C .58064 -.50594 -4.06993
C -.64151 4.30941 1.72044
C -1.90087 4.13821 1.13666
C -2.00397 4.41013 -.25544
C -.83282 4.48680 -1.04284
C .44072 4.58227 -.46537
C .48842 4.68681 .94943
C 2.79601 3.94139 .97525
C 1.65458 4.24112 1.66601
C .01612 2.97341 -2.85109
C -1.04106 3.70268 -2.25401
C 2.05973 1.23901 -3.68895
C 2.40732 2.31178 -2.80250
C 1.37807 3.19897 -2.38216
C 1.58571 4.02757 -1.18737
C 2.77154 3.87222 -.47439
C 2.77845 -.03155 -3.67532
C 3.85990 -.20356 -2.87372
C 4.33837 .89966 -2.05928
C 3.62631 2.15608 -2.01824
C 3.77273 2.92276 -.86714
C 3.01636 -2.48508 -2.16623
C 1.88702 -2.31183 -3.05470
C 1.80643 -1.10161 -3.81789
C 4.01271 -1.43764 -2.11666
C 3.04360 -3.52349 1.40964
C 1.81388 -4.28780 1.43047
C 1.26220 -4.72063 .25759
C 3.60519 -3.04123 .20090
C 2.91511 -3.35887 -1.05137
C 1.79041 -4.22589 -1.00101
C 4.55405 -1.16689 1.48866
C 3.75176 -1.53284 2.60163
C 3.01373 -2.69447 2.56676
C 4.67289 -1.11882 -.94170
C 4.43615 -1.86510 .26783
C 4.36619 2.36436 .32878
C 4.89196 .34005 -.90792
C 4.85327 1.04823 .33631
C 4.68425 .28978 1.52616
