100 

C 2.54943 -2.47907 -2.85017
C 2.51991 -1.10904 -3.14456
C 3.54731 -.25506 -2.56250
C 3.32263 1.17007 -2.46961
C 4.08259 1.89920 -1.54218
C 1.10196 .91040 -3.62455
C 2.08154 1.75938 -2.97856
C 1.69540 3.06201 -2.51760
C .38367 3.52921 -2.78587
C .14813 -1.39460 -3.78499
C 1.28604 -.54071 -3.64226
C -1.12144 -.81981 -4.05665
C -1.29357 .55320 -4.12787
C -.19958 1.43705 -3.89154
C -.54380 2.73715 -3.45203
C .13950 -2.73861 -3.24692
C -1.08567 -3.28294 -2.65158
C 1.36139 -3.27630 -2.85920
C -.97058 -4.23487 -1.64526
C 2.38219 3.67769 -1.38627
C 3.54411 3.08325 -.91281
C -.35878 4.34037 -1.82635
C .23022 4.72557 -.66212
C 1.63323 4.44498 -.44478
C -1.73974 3.88959 -1.82986
C -.47403 4.53205 .59544
C -1.80792 3.99654 .64075
C -2.47740 3.69395 -.59705
C -2.65507 .86966 -3.68084
C -2.90513 2.00792 -2.90349
C -1.87901 3.01057 -2.88994
C -3.82364 1.93535 -1.78770
C -3.57945 2.78438 -.61242
C -4.10912 2.37704 .63489
C 1.79423 4.20308 .92925
C 2.83935 3.39101 1.41470
C 3.84329 3.03920 .48594
C 4.71271 1.91255 .70814
C 4.53930 1.14407 1.84450
C .47686 4.19950 1.55527
C .17260 3.29767 2.62177
C 1.21560 2.41532 3.10037
C 2.56795 2.50548 2.54008
C 3.43824 1.43440 2.73824
C -.50957 1.05609 4.15236
C .83670 1.21885 3.78077
C -3.43706 2.65886 1.84502
C -2.21003 3.36286 1.85314
C -1.20344 3.00406 2.85010
C -1.50620 1.95727 3.75461
C 5.10148 -.10901 -.63347
C 5.01697 -.91175 .58172
C 4.91921 1.25700 -.57214
C 4.67820 -.30120 1.77190
C 3.65553 -.89456 2.59431
C .88040 -3.43063 2.30098
C -.44787 -3.54227 2.71396
C 1.67948 -2.32015 2.82156
C 2.99167 -2.07887 2.24772
C 3.41388 -2.76995 1.03468
C 4.41466 -2.17304 .24228
C 1.65924 .01905 3.69118
C 2.95343 .17236 3.24298
C -1.09981 -.26496 4.27920
C -.35186 -1.42001 3.96112
C 1.05201 -1.30168 3.60558
C -1.07697 -2.53438 3.51967
C 3.38878 -2.99972 -1.79322
C 4.49774 -.84579 -1.69974
C 4.30304 -2.18656 -1.19842
C 2.51331 -3.72183 .39906
C 1.27175 -4.09626 1.05725
C 2.61773 -3.91283 -.99240
C 1.45742 -4.22874 -1.77820
C .31596 -4.65677 -1.15605
C .26872 -4.70899 .28280
C -2.65496 -3.30884 1.99566
C -1.47534 -4.09904 1.86658
C -1.12475 -4.61404 .63905
C -3.39611 -2.90372 .87627
C -2.97028 -3.37017 -.43359
C -1.88598 -4.25001 -.51592
C -2.47485 -.16653 3.96011
C -4.07457 -.82972 2.17054
C -3.12021 -1.19162 3.21706
C -2.43814 -2.40913 3.11252
C -4.68376 -1.11912 -.18901
C -4.19579 -1.68212 .99172
C -4.95792 .28388 -.29866
C -4.78835 1.09703 .79280
C -4.42129 .52810 2.05181
C -3.69682 1.56273 2.76570
C -2.75400 1.22566 3.69517
C -3.30463 -.36482 -3.39956
C -4.23978 -.43435 -2.37449
C -4.54976 .73928 -1.61427
C -3.29155 -2.59308 -1.62601
C -2.33120 -2.52503 -2.72137
C -2.35824 -1.41964 -3.56894
C -4.23177 -1.57026 -1.49509
