100 

C -.20098 -1.40559 -4.29676
C 1.12383 -1.39682 -3.88348
C 1.85929 -.14229 -3.92951
C -.88498 -.19962 -4.66679
C -.20769 1.00027 -4.62434
C 1.17744 1.02212 -4.27760
C -2.43094 2.99536 -2.44943
C -.84615 2.15736 -4.04298
C -2.12238 2.05866 -3.46589
C -2.82985 .78268 -3.47209
C -3.75666 .47280 -2.38034
C -2.24517 -.28211 -4.17940
C -4.08621 -.85793 -2.15762
C 3.08763 .00621 -3.16613
C 3.66889 -1.16093 -2.65731
C 4.61986 -1.12639 -1.60125
C 3.40266 1.27648 -2.54686
C 4.33981 1.28919 -1.51058
C 4.96374 .09939 -1.03333
C 1.42559 2.26108 -3.55876
C 2.42817 2.37229 -2.61301
C 2.22353 3.27062 -1.47743
C 3.13852 3.15361 -.35925
C 4.16946 2.18957 -.38341
C 2.72847 3.59013 .91028
C .17848 2.94630 -3.41583
C -.08346 3.72701 -2.28481
C .95374 3.90510 -1.28297
C -.87563 4.44477 .41525
C .55321 4.35782 .05707
C 1.46226 4.21849 1.10196
C -1.27970 4.23312 1.76620
C -1.83451 4.18055 -.56305
C -1.45442 3.85544 -1.91889
C 4.52633 -2.16132 .61343
C 4.83234 -.87389 1.21056
C 4.38786 -2.28013 -.75382
C 5.08485 .21626 .40710
C 4.55963 1.50429 .79399
C 3.80449 1.66176 1.98856
C 3.01689 2.80579 2.06837
C 1.48405 -3.91270 1.81119
C 2.55486 -3.64225 .94726
C 3.57746 -2.82808 1.47194
C 3.39915 .48339 2.75269
C 3.98867 -.72586 2.38737
C 3.29240 -1.95728 2.57605
C 2.10442 .46873 3.45230
C 2.05280 -1.99375 3.22826
C 1.26491 -3.13613 2.96962
C 2.29456 -3.65151 -.48753
C 3.24891 -3.00853 -1.29997
C 2.85692 -2.36677 -2.48840
C .20748 -4.35009 1.30572
C -.11387 -4.23524 -.04851
C .94743 -3.82009 -.98458
C .58549 -3.24920 -2.25085
C 1.54710 -2.44733 -2.96521
C -.82640 -3.14815 -2.63564
C -1.16234 -2.30377 -3.69743
C -.74971 -4.04530 2.33816
C -1.52390 -4.07842 -.40475
C -1.88047 -3.54110 -1.71205
C -2.08210 -3.88979 2.00272
C -2.47964 -4.01611 .62286
C 1.89292 2.88185 2.96821
C 1.36993 1.72230 3.58456
C 1.42330 -.76318 3.67171
C -.02226 -.77973 3.96513
C -.80207 -2.00378 3.72947
C -.14083 -3.15605 3.26433
C -2.44162 -1.64162 -3.76409
C -3.39608 -1.93094 -2.82536
C -3.16336 -2.98665 -1.88277
C -3.86186 -2.44292 1.65371
C -3.68238 -3.22422 .48280
C -4.00558 -2.69166 -.74663
C -3.90779 -.25263 2.66234
C -4.27043 -1.09887 1.56759
C -.02556 1.71279 3.92361
C -.71383 .44428 4.11550
C -2.15431 .45070 4.01943
C -2.86224 -.66843 3.61181
C -2.21706 -1.92633 3.47407
C -2.83977 -2.86495 2.61851
C -.29262 3.89359 2.78867
C 1.04084 3.89717 2.45995
C -2.20896 2.76108 3.28000
C -.80307 2.86251 3.61574
C -2.86394 1.59337 3.47714
C -3.03287 3.46929 -.25788
C -3.30670 3.02590 1.04186
C -2.46754 3.54071 2.07339
C -4.46473 -1.34253 -.84613
C -4.50326 -.49837 .27634
C -4.27193 .93284 .07979
C -3.94540 1.41573 -1.26553
C -3.38024 2.67844 -1.39443
C -3.84536 1.11910 2.51095
C -3.96769 1.74413 1.21134
