100 

C -3.76446 2.08857 1.89751
C -3.41075 3.05057 .93385
C -3.98154 2.90095 -.35291
C -4.56367 .97099 1.57927
C -4.92199 .69162 .23179
C -4.66672 1.70822 -.71227
C -2.14238 3.77331 1.09175
C -1.63207 4.42727 -.02781
C -2.80810 1.68847 2.92158
C -1.53075 2.27023 3.01652
C -1.20691 3.40567 2.16604
C .14495 3.84498 2.10435
C 1.10499 3.21467 2.95536
C -4.26472 -1.39716 2.09507
C -4.17314 -.09497 2.48381
C -3.01769 .34250 3.24052
C -1.92305 -.53184 3.52298
C -.49809 1.47269 3.59903
C .79505 2.03883 3.63685
C -4.56854 -.98430 -1.56547
C -4.92167 -.70561 -.21651
C -4.66028 -1.72172 .72636
C .65402 4.50369 .91134
C -.23181 4.70516 -.15586
C 2.51981 3.15156 2.61578
C 2.97047 3.69226 1.44517
C 2.02855 4.38082 .57434
C 3.02890 1.86972 3.04850
C 3.95482 1.13515 2.24933
C 3.99301 -.24078 2.45753
C -3.25577 -2.34457 2.52291
C -2.05963 -1.93371 3.16395
C -.64335 .03522 3.73266
C .44766 -2.17958 3.26718
C .55674 -.82793 3.69129
C 1.86527 -.20004 3.70903
C 1.97757 1.20860 3.71210
C 2.98551 -.90135 3.23486
C 3.62855 3.32436 -.73301
C 2.42418 4.13650 -.76120
C 1.44988 3.95405 -1.77877
C .16171 4.39749 -1.49070
C 3.85008 2.42338 -1.74856
C 4.34695 1.65632 .94133
C 3.91493 2.95746 .61398
C 4.43677 1.15723 -1.45779
C 4.64082 .72451 -.13878
C 2.84576 2.23662 -2.78944
C 1.61023 2.87944 -2.76186
C -.89604 2.73422 -3.00518
C -.98776 3.88713 -2.20235
C -2.11407 4.10922 -1.36134
C -3.24761 3.35222 -1.52439
C 2.96897 .89951 -3.25698
C 1.96294 -1.21197 -3.72983
C 1.84789 .19669 -3.72587
C .53850 .82304 -3.70149
C .42879 2.17463 -3.27683
C -.66012 -.04201 -3.73661
C -2.07764 1.92503 -3.16165
C -3.27171 2.33375 -2.51545
C 3.94671 -1.13586 -2.27622
C 3.98133 .24020 -2.48439
C 3.01862 -1.87168 -3.07147
C 4.34552 -1.65662 -.97004
C 4.44543 -1.15740 1.42881
C 4.64273 -.72444 .10878
C 3.91705 -2.95844 -.64080
C .78213 -2.04385 -3.64878
C -.51166 -1.47945 -3.60406
C -1.93971 .52310 -3.52093
C -3.03144 -.35324 -3.23372
C -4.18410 .08232 -2.47167
C -4.27670 1.38425 -2.08285
C 1.09714 -3.21950 -2.96939
C .14173 -3.85141 -2.11401
C -1.21122 -3.41420 -2.16901
C -1.54057 -2.27895 -3.01736
C -2.81834 -1.69916 -2.91621
C -1.62422 -4.43549 .02730
C -2.14111 -3.78299 -1.08993
C 2.03304 -4.38416 -.59253
C 2.97013 -3.69448 -1.46810
C 2.51357 -3.15439 -2.63685
C -.22305 -4.71100 .14857
C .65718 -4.50892 -.92318
C 3.86225 -2.42441 1.72215
C .17601 -4.40261 1.48176
C 1.46468 -3.95753 1.76383
C 2.43431 -4.13913 .74125
C 3.63741 -3.32563 .70716
C -3.23418 -3.36277 1.53176
C -2.10032 -4.11788 1.36326
C -.97069 -3.89389 2.19905
C -.87734 -2.74082 3.00170
C 1.62786 -2.88283 2.74632
C 2.86266 -2.23879 2.76795
C -3.76933 -2.10070 -1.88753
C -3.40979 -3.06209 -.92559
C -3.97453 -2.91300 .36394
