100 

C -.73531 -4.11205 -2.49405
C -1.52678 -4.18171 -1.20944
C -1.51430 -4.00656 1.43266
C -2.99430 -3.66805 1.35950
C -3.64530 -2.74452 2.36773
C -2.85875 -2.25753 3.52931
C .75185 -4.11082 -2.49170
C 1.53898 -4.17738 -1.20418
C .76748 -4.28025 .12886
C -.75989 -4.28291 .12626
C 2.99582 -3.65901 1.36960
C 1.51656 -4.00233 1.43786
C .75209 -3.62694 2.70691
C -.75521 -3.62910 2.70425
C -1.48384 -2.82485 3.78519
C 3.69317 -3.43053 .05499
C 2.98105 -3.66352 -1.24404
C 3.47776 -2.87926 -2.45221
C -2.81168 3.81902 1.42786
C -3.55143 2.56952 1.80281
C -4.57596 -1.80121 1.64348
C -2.83644 -.77172 3.84934
C -3.56408 .22849 2.98802
C -4.54847 -.30973 1.94246
C -2.95969 1.63301 2.84888
C .72419 -1.76074 4.55898
C -.73846 -1.76286 4.55604
C -1.48999 -.45700 4.44853
C 1.47286 -.45277 4.45431
C .74837 .83800 4.13483
C -.76800 .83578 4.13204
C -1.54054 1.92819 3.40631
C -.76909 3.15853 2.93419
C -1.49170 4.16899 2.06448
C 1.47513 -2.82092 3.79056
C -5.00310 .61066 .84150
C -4.53185 2.03731 .78911
C -1.51533 5.10436 -.21215
C -2.79907 4.32782 -.01182
C -3.36722 3.44403 -1.10322
C -4.38821 2.43040 -.67471
C -.75533 4.93549 -1.50322
C .72770 5.06851 1.10229
C -.74839 5.06610 1.09939
C .74761 3.16087 2.93714
C 1.47032 4.17368 2.07018
C 1.52083 1.93265 3.41217
C -5.16319 .11317 -.58718
C -4.93479 -1.33617 -.92495
C -4.68058 -2.29565 .20882
C -4.34107 -1.65868 -2.27030
C -4.68914 1.22066 -1.52086
C -1.21413 3.87651 -2.48989
C -2.50370 3.12880 -2.32101
C -2.60450 1.77956 -3.01690
C -3.79966 .88678 -2.69928
C -3.77415 -.54420 -3.14808
C -2.51660 -2.56337 -3.58950
C -3.46489 -2.88868 -2.46396
C -2.97015 -3.67186 -1.25411
C -3.68751 -3.44134 .04245
C -1.17962 -3.19394 -3.61886
C 1.19766 -3.19162 -3.61557
C .00769 -2.39970 -4.07534
C 2.53245 -2.55671 -3.58111
C -.00136 3.18855 -3.05612
C .00106 1.93519 -3.54042
C -1.32567 1.18252 -3.65951
C -1.31315 -.29107 -4.06505
C -2.59202 -1.09266 -3.89923
C 1.33195 1.18611 -3.65492
C 1.32470 -.28734 -4.06089
C .00608 -1.04741 -4.20811
C 2.60498 -1.08570 -3.89050
C 1.20950 3.88094 -2.48659
C 2.49998 3.13585 -2.31237
C 2.60664 1.78691 -3.00798
C 4.68778 1.23346 -1.50490
C 3.80296 .89720 -2.68623
C 3.78282 -.53384 -3.13531
C 2.78383 4.33529 -.00190
C 1.49893 5.10884 -.20696
C .74397 4.93863 -1.50112
C 4.38043 2.44223 -.65954
C 3.35764 3.45305 -1.09150
C 2.82203 -.76405 3.85996
C 3.54975 .23821 3.00099
C 2.94239 1.64122 2.85997
C 4.51999 2.04959 .80472
C 3.53454 2.57913 1.81564
C 2.79268 3.82679 1.43792
C 4.57157 -1.78832 1.65923
C 3.64072 -2.73418 2.38031
C 2.84911 -2.24991 3.53955
C 4.99471 .62447 .85861
C 4.53875 -.29709 1.95831
C 4.34951 -1.64666 -2.25552
C 5.16101 .12741 -.56959
C 4.93763 -1.32244 -.90815
C 4.68237 -2.28248 .22485
