100 

C -4.06535 -1.33344 2.38535
C -3.92161 .13287 2.68508
C -4.79608 1.10554 1.92222
C -4.31683 2.54539 1.79221
C -3.18693 3.03746 2.66256
C -3.08099 -2.35553 2.84568
C -1.76423 -1.83051 3.36843
C -1.62726 -.37843 3.76384
C -2.75260 .60220 3.48535
C -2.48422 2.09354 3.60711
C .87285 -.82980 4.40994
C -.25322 .14030 4.11735
C -1.71829 -3.96276 1.26475
C -3.05274 -3.44251 1.76425
C .97303 -4.92213 .23951
C .89001 -4.09231 1.50886
C -.44826 -3.59424 1.99809
C -.51745 -2.65158 3.17137
C .73065 -2.28164 3.94068
C -.87388 4.87280 .02565
C -2.14452 4.29321 .62378
C -2.18547 4.06398 2.12638
C -.87500 3.69613 2.74339
C 1.65833 3.17065 2.45259
C .43772 3.98276 2.06772
C .42358 4.81950 .83483
C 4.11139 2.40887 1.94184
C 2.91492 3.29347 1.60889
C .07629 1.57834 3.82313
C -1.04217 2.59126 3.76027
C 2.31548 -.38849 4.15170
C 2.59695 .98623 3.57004
C 1.45382 1.93790 3.31285
C 3.93442 1.23237 2.90752
C -3.10966 3.54175 -.26924
C -4.37580 2.95589 .32354
C -5.05246 1.81010 -.42859
C -2.69815 3.19609 -1.68110
C -3.57004 2.30624 -2.54351
C -4.68012 1.51342 -1.86027
C -.53506 4.63677 -1.45216
C -1.30149 3.53007 -2.14340
C .88232 2.69394 -3.33604
C -.60377 2.58804 -3.08990
C -1.37245 1.43756 -3.68504
C -2.87633 1.36204 -3.53162
C 1.58395 1.63686 -4.17184
C .99302 4.60281 -1.55787
C 3.15521 3.39663 -2.24915
C 1.69670 3.69571 -2.54823
C 2.75183 3.81817 .19728
C 1.57052 4.67884 -.14908
C 3.53274 3.36377 -.78928
C -4.27517 -2.43769 -1.76461
C -4.75578 -1.06122 -1.35467
C -4.62963 .07216 -2.35270
C -3.52755 -.01711 -3.40468
C .84280 .32576 -4.47158
C -.61471 .20070 -4.08448
C -1.18831 -1.14393 -3.71474
C -2.67292 -1.26923 -3.46085
C -3.22922 -2.55115 -2.87613
C -5.07857 -.76833 .09554
C -5.29961 .66485 .54446
C -3.94908 -3.47618 -.69646
C -4.13576 -3.12619 .76031
C -4.81309 -1.81736 1.16028
C -2.68959 -4.21495 -1.13164
C -1.61851 -4.52704 -.13297
C -.26386 -4.94321 -.66318
C 1.78741 -.83894 -4.16722
C 1.23447 -2.05785 -3.45918
C -.25623 -2.28959 -3.41117
C -.79139 -3.56253 -2.79951
C -2.27155 -3.68113 -2.49968
C .14468 -4.45737 -2.04812
C 3.40844 -2.25390 -2.05807
C 2.12585 -2.86426 -2.57444
C 1.65115 -4.20558 -2.05324
C 4.15564 -2.91343 -.91436
C 4.71884 1.51080 -1.81806
C 3.81119 2.14715 -2.85939
C 3.01207 1.26385 -3.78708
C 4.57525 .02549 -1.54419
C 3.77274 -.84893 -2.48108
C 3.11378 -.25141 -3.68525
C 5.25060 .42013 .97165
C 4.98215 1.90869 .78485
C 4.66166 2.41045 -.59480
C 4.83747 -1.99524 .10002
C 5.00060 -.52045 -.19509
C 3.06879 -1.58723 3.58293
C 4.40783 -2.42198 1.50013
C 4.15100 -1.36524 2.55125
C 4.68103 .03318 2.33058
C 2.15915 -4.61390 -.67409
C 3.40148 -3.97182 -.10835
C 3.46510 -3.61525 1.37348
C 2.16066 -3.57111 2.14735
C 2.08957 -2.74551 3.41634
