100 

C 2.54851 -3.75944 1.11450
C 3.25278 -3.40985 -.08817
C 4.37526 -2.55381 .04990
C 4.84203 -1.77786 -1.03063
C 4.16773 -1.82637 -2.26348
C 1.22340 -4.16097 1.07763
C .48865 -4.21616 -.14926
C 1.12294 -3.79274 -1.34257
C 2.53020 -3.42389 -1.32573
C 3.02044 -2.63777 -2.39853
C -1.06510 -3.53884 -2.38121
C .28575 -3.29843 -2.42575
C -2.93828 -3.50796 1.17337
C -1.59798 -3.87426 1.20440
C -.95347 -4.24721 -.04702
C -1.68970 -4.13297 -1.23289
C 5.08064 .65393 -1.22145
C 4.40089 .60397 -2.51513
C 5.27628 -.49542 -.49941
C 3.92877 -.59063 -2.99935
C 2.59414 -.64076 -3.54894
C -.10585 2.60420 -2.86771
C -.61681 1.36212 -3.36526
C 1.72865 .47288 -3.57264
C 2.26078 1.74837 -3.12434
C 3.58709 1.78910 -2.64124
C .72875 -2.16862 -3.23188
C 2.08688 -1.92863 -3.27016
C -2.01393 -2.64034 -3.01141
C -1.60753 -1.36427 -3.43825
C -.18151 -1.09704 -3.55292
C .30755 .24337 -3.61180
C -2.54081 -.27489 -3.35191
C -2.03040 1.09498 -3.29822
C -2.88232 2.08806 -2.77804
C 3.03387 3.58659 -1.11171
C 4.66281 1.87715 -.55347
C 3.92793 2.63454 -1.52644
C -.99145 3.51742 -2.17522
C 1.34034 2.78990 -2.71660
C 1.80217 3.76426 -1.82202
C -2.36336 3.24979 -2.16803
C 2.77938 3.76341 .28880
C 3.26448 2.85614 1.23003
C 4.28767 1.89897 .80207
C 4.51850 .68413 1.58734
C 5.02593 -.49053 .93112
C 3.76793 .49207 2.74515
C 1.46363 4.33944 .40457
C -.73137 4.34698 1.33960
C .63741 4.07759 1.51262
C 1.06778 3.08626 2.49323
C 2.40478 2.55610 2.38394
C 2.71910 1.41738 3.13208
C -.48119 4.35222 -1.09332
C .89789 4.40198 -.89815
C -1.28237 4.57474 .05308
C 3.37756 -.81949 3.18070
C 3.70826 -1.95623 2.40680
C 4.56694 -1.76990 1.28345
C 2.76706 -3.01264 2.35810
C 2.10436 -.71290 3.81485
C -1.95269 .40570 3.80781
C -.63198 .03438 3.94431
C -.27541 -1.36838 3.71660
C 1.13561 -1.72040 3.68765
C 1.53155 -2.91208 3.02820
C -1.73169 3.69276 2.15047
C -1.35197 2.69973 3.06249
C .06236 2.36582 3.23632
C .38584 1.08601 3.80280
C 1.71985 .68603 3.80363
C -2.33250 1.73438 3.37965
C -2.95304 -.50913 3.35192
C -2.60374 -1.81862 2.98355
C -1.23134 -2.25455 3.14194
C -.77441 -3.38184 2.32090
C .56960 -3.67016 2.28542
C -3.44763 -2.45990 2.04969
C -3.92796 .22908 2.62424
C -4.59841 -.33454 1.52994
C -4.45245 -1.74066 1.35629
C -2.93148 3.58124 1.38831
C -4.45489 1.90896 .35905
C -3.79035 2.46992 1.53699
C -3.53163 1.62589 2.63978
C -5.05155 -.13884 -.87486
C -4.88027 .50884 .36155
C -4.55410 .45585 -2.08388
C -4.10897 1.74557 -2.07680
C -4.19770 2.52621 -.88115
C -3.21580 3.57754 -1.02446
C -2.66195 4.15211 .08781
C -3.27458 -2.85715 -2.37686
C -4.17284 -1.80901 -2.28085
C -3.83401 -.54266 -2.84882
C -4.63638 -2.36688 .06083
C -3.70010 -3.47235 -.04010
C -3.06781 -3.74670 -1.24339
C -4.89692 -1.57495 -1.03501
