100 

C -4.51674 -1.38279 -1.53611
C -3.90397 -2.59020 -1.40789
C -3.70287 -3.15499 -.09921
C -2.65259 -4.11680 -.25041
C -1.89725 -4.46443 .83659
C -4.06168 -.45073 -2.54276
C 1.52427 -4.41894 -.57948
C -.49075 -4.77059 .65959
C .13337 -4.58890 -.59679
C -2.00816 -3.89624 -1.54333
C .01864 -3.12493 -2.66455
C -.63218 -4.00789 -1.70755
C 2.12353 -2.05659 -3.35751
C 1.47500 -3.10074 -2.69296
C 2.21640 -3.77017 -1.67112
C -2.58052 1.80741 -3.21041
C -2.04245 .54830 -3.51049
C -2.81578 -.63383 -3.17378
C -2.13561 -1.91923 -3.00851
C -2.76138 -2.90596 -2.23508
C -.61753 .44923 -3.73781
C -.00617 -.87372 -3.76614
C -.71937 -2.04085 -3.25100
C 1.37324 -.94831 -3.88176
C 2.21519 -4.13280 .62162
C 1.52001 -3.94938 1.83200
C .18555 -4.41855 1.85965
C -.80082 -3.83928 2.75741
C -.42329 -2.83595 3.60055
C 3.35956 -3.33392 .29199
C 4.57725 -1.27514 .49924
C 3.77394 -2.29212 1.11803
C 2.99414 -1.96658 2.32111
C 1.92210 -2.84615 2.70345
C .95642 -2.37292 3.62304
C 3.40272 -1.56702 -2.94360
C 4.00737 -2.07725 -1.77193
C 3.39939 -3.20653 -1.15612
C 4.70240 -1.17058 -.92394
C -4.28070 1.37226 1.44914
C -3.98261 .05644 1.82006
C -2.06840 -3.75578 2.07521
C -1.28997 -1.69980 3.78328
C -2.46472 -1.51940 3.03345
C -2.88364 -2.60843 2.15198
C -2.93142 -.16982 2.81695
C -.45829 -.60378 4.12730
C -.84140 .70330 3.88222
C -2.14642 .93717 3.29240
C -1.42017 3.25970 2.82221
C -2.43171 2.27545 2.80540
C -3.47319 2.47322 1.89303
C 2.53441 2.18897 3.15557
C 1.61362 1.28657 3.69344
C .22360 1.70785 3.81550
C -.11812 2.98916 3.38047
C 4.66053 .01894 1.04215
C 3.90650 .37594 2.20237
C 3.03082 -.61367 2.83303
C 1.94235 -.13120 3.63583
C .93517 -1.02814 4.01651
C 3.64899 1.73705 2.38021
C -4.90088 -.64957 -.35210
C -5.03672 .71986 -.76157
C -4.79280 1.72084 .15004
C -3.77652 -2.33123 1.04392
C -4.36622 -1.00792 .90325
C -4.15414 2.95821 -.27138
C -4.52441 .84374 -2.12440
C -3.81310 1.96631 -2.48837
C -3.65411 3.07183 -1.55949
C -1.25532 4.14493 1.72162
C -2.13129 4.09841 .61828
C -3.35586 3.42575 .82658
C .14098 4.42056 1.55763
C .73809 4.41542 .28746
C -.11843 4.19338 -.88009
C -1.55713 4.14078 -.71284
C -2.33811 3.62965 -1.76758
C 1.85862 3.46676 -2.14147
C .45688 3.62027 -2.06414
C 2.85558 3.69045 1.39083
C 2.12781 3.45365 2.61217
C .81314 3.83255 2.70224
C 2.71101 3.72825 -1.02134
C 2.16660 4.12238 .21754
C 4.86872 .94406 -.03286
C 3.83517 2.85896 -1.11581
C 4.37938 2.27442 .05199
C 3.87014 2.70162 1.31162
C 3.46363 -.16139 -3.24818
C 3.68907 2.07679 -2.32600
C 4.17157 .74563 -2.40621
C 4.83086 .20951 -1.25739
C -1.72133 2.88961 -2.82742
C -.34604 2.79825 -2.94536
C .20976 1.60653 -3.56749
C 2.45281 2.44192 -2.93198
C 1.64526 1.47662 -3.60139
C 2.20822 .21233 -3.82330
