100 

C 2.41189 3.87072 1.13393
C 2.50320 3.04155 2.31902
C 3.56115 2.12910 2.36315
C 3.47006 .91614 3.12400
C 2.37003 .68548 3.90927
C 1.19748 4.38309 .72005
C -1.19122 4.35125 .77067
C -.01618 4.16295 1.47337
C .00253 3.27663 2.63748
C 1.28335 2.76391 3.07925
C 1.28957 1.64019 3.92414
C 3.47286 -1.42413 2.31862
C 2.29938 -1.68403 3.16685
C 4.03891 -.15470 2.35033
C 1.81473 -.64036 3.96853
C .42438 -.50439 4.23053
C -.49277 -1.46745 3.83851
C -.00475 -2.65663 3.16609
C 1.38278 -2.74838 2.84243
C 1.79930 -3.67216 1.82492
C -2.32586 -3.15992 2.50767
C -.96458 -3.49844 2.45075
C -3.41480 .76706 3.10292
C -2.21156 .37686 3.68333
C -1.88508 -1.04401 3.71452
C -2.78552 -1.94827 3.16073
C -2.42841 3.79505 1.21499
C -2.45850 2.92478 2.33562
C -1.21268 2.61611 3.03082
C -1.14230 1.37084 3.76989
C .09765 .92052 4.19666
C -3.52880 2.02160 2.39277
C 2.96487 -3.40827 .98746
C 3.72906 -2.26006 1.13258
C 4.37277 -1.68897 -.05817
C 2.70893 -3.99984 -.29808
C 3.20654 -3.38788 -1.43987
C 4.12207 -2.28572 -1.30485
C 1.39165 -4.51771 -.29378
C .52874 -4.29294 -1.38383
C -.87426 -4.38058 -1.11559
C -.52294 -4.30619 1.34307
C .88032 -4.38634 1.07412
C -1.38507 -4.52507 .25127
C 4.78178 -.28512 -.04630
C 4.64898 .44801 1.17096
C 3.96169 -1.47525 -2.49431
C 4.26945 -.13716 -2.46087
C 4.77111 .45164 -1.24308
C 2.78343 -1.91174 -3.18130
C 3.40450 .80507 -3.10072
C 2.20232 .41571 -3.68389
C 1.88022 -1.00595 -3.72727
C .96773 -3.47421 -2.48453
C 2.32801 -3.13061 -2.53882
C -1.79574 -3.66312 -1.86009
C -1.38208 -2.72910 -2.86957
C .00530 -2.62964 -3.19250
C .48957 -1.43310 -3.85469
C -.43063 -.46988 -4.23819
C 4.37661 1.83689 -1.25157
C 4.16533 2.53124 -.04634
C 4.37052 1.82472 1.17898
C 3.20894 3.57585 -.05227
C 3.51499 2.05404 -2.38016
C -.10886 .95581 -4.19182
C 1.12998 1.40684 -3.76158
C 1.19717 2.64611 -3.01270
C 2.44254 2.95349 -2.31570
C 2.41029 3.81446 -1.18831
C -1.30282 1.66880 -3.91409
C -1.29935 2.78557 -3.06029
C -.01950 3.29915 -2.61442
C -.00307 4.17569 -1.44325
C 1.17141 4.36247 -.73928
C -1.21734 4.38412 -.68802
C -2.37984 .71039 -3.90775
C -3.48075 .93061 -3.12137
C -3.57528 2.13701 -2.35029
C -2.51944 3.05249 -2.29815
C -2.42984 3.87117 -1.10577
C -3.47614 -1.41639 -2.33495
C -2.30165 -1.66504 -3.18509
C -1.82012 -.61301 -3.97786
C -4.04628 -.14859 -2.35659
C -4.12274 -2.31075 1.28080
C -3.20372 -3.41112 1.40682
C -2.70417 -4.01181 .26010
C -4.37518 -1.70423 .03946
C -3.72970 -2.26310 -1.15582
C -2.96193 -3.40999 -1.02019
C -4.77978 .42507 1.24188
C -4.27690 -.17256 2.45522
C -3.96526 -1.51007 2.47748
C -4.65805 .44232 -1.17226
C -4.78812 -.30136 .03934
C -3.22613 3.56331 .07754
C -4.38348 1.81987 -1.16879
C -4.17956 2.51640 .06300
C -4.38947 1.81138 1.26269
