100 

C -4.70681 2.12740 -.53906
C -1.15639 4.12763 -1.56975
C -2.45412 3.62940 -1.38682
C -3.02702 3.83408 -.11366
C -4.15852 3.05818 .32325
C -.36031 4.52859 -.47646
C -.79202 4.23673 .83918
C -2.15838 4.01322 1.01038
C 1.55711 3.65594 1.41667
C .15263 3.66273 1.77892
C 2.43220 2.95620 2.23376
C 1.99184 3.94864 .03781
C 3.19923 3.31330 -.50006
C 1.02496 4.38756 -.85950
C 3.25559 3.04737 -1.87746
C -5.07914 .56562 1.31562
C -4.36426 1.48021 2.18388
C -5.22956 .87782 -.02588
C -3.94201 2.70804 1.71220
C -2.65118 3.20538 2.09859
C .58677 1.90629 3.47244
C 1.95915 2.12752 3.28698
C -.33405 2.76591 2.78433
C -1.76013 2.45590 2.87043
C -2.19081 1.14688 3.33707
C -3.47901 .71334 3.01312
C -3.74553 -2.91726 1.09006
C -4.58801 -1.81991 .74570
C -4.69559 -.78285 1.69274
C -3.74925 -.68255 2.76062
C -1.45794 -1.23990 3.46237
C -2.75177 -1.64343 2.94015
C -2.85141 -2.82955 2.17393
C .89499 -1.74775 3.75187
C -.35214 -2.16789 3.33662
C .15841 .58306 3.91863
C -1.19180 .14420 3.68908
C 1.14155 -.39470 4.11772
C -4.73726 -1.48236 -.66951
C -4.97554 -.14553 -1.02218
C -3.12254 -3.76182 .07723
C -3.29169 -3.46352 -1.24853
C -4.04056 -2.27346 -1.62853
C .19268 -3.76736 -2.49735
C -2.15912 -3.57744 -2.14227
C -.90326 -4.09030 -1.70418
C -1.80644 -4.15668 .56585
C .62479 -4.16266 .30330
C -.69101 -4.31403 -.27033
C 3.01365 -3.64508 -.11126
C 1.77380 -4.06421 -.60448
C 1.53990 -3.83791 -1.98563
C -.41401 -3.28292 2.37985
C -1.65995 -3.60615 1.85795
C 2.11775 -2.31246 3.20536
C 2.06322 -3.22694 2.13172
C .76181 -3.69110 1.65199
C 3.17547 -3.26020 1.27505
C -3.35191 -1.66908 -2.69345
C -3.29679 -.25957 -2.83992
C -4.24208 .46154 -2.10065
C -4.03685 1.84166 -1.79704
C -1.88058 1.76229 -3.00265
C -2.87331 2.49254 -2.19613
C -2.20755 -2.48256 -3.02545
C .12849 -2.68535 -3.43268
C -1.02729 -1.89836 -3.54252
C -.90675 -.45727 -3.66344
C -2.06547 .38741 -3.28555
C .39408 .10656 -3.77579
C -.56294 2.36014 -3.20554
C -.28989 3.60355 -2.60407
C 1.42015 -2.11077 -3.52549
C 1.58729 -.74380 -3.68599
C .55493 1.54297 -3.61805
C 1.85548 2.05174 -3.46097
C 2.10138 3.24155 -2.71075
C 1.03433 3.97024 -2.23672
C 3.83226 -.97811 -2.50359
C 2.88906 -.18936 -3.29386
C 3.00760 1.19129 -3.27240
C 4.75234 -.30360 -1.68008
C 4.69790 -2.06563 .00804
C 3.91049 -2.86517 -.89940
C 3.48251 -2.34099 -2.13915
C 2.31924 -2.90284 -2.69697
C 5.11885 -.81999 -.37632
C 3.13362 -1.33068 3.28893
C 4.13666 -1.22693 2.29222
C 4.20459 -2.28355 1.35575
C 3.98902 1.24419 2.49286
C 2.94837 1.09969 3.49986
C 2.54416 -.14550 3.89742
C 5.09324 .28322 .57702
C 4.59008 .10787 1.88393
C 3.91321 1.85808 -2.37884
C 4.73068 1.12066 -1.56035
C 4.84701 1.48004 -.15572
C 4.05161 2.51635 .38362
C 3.69218 2.40297 1.74323
