100 

C 3.83357 -2.79320 -.53608
C 4.90755 -1.88938 -.47575
C 5.15490 -.94089 -1.52521
C 2.97695 -2.79085 -1.72004
C 3.26191 -1.87997 -2.73790
C 4.33486 -.93530 -2.64122
C -.08756 -4.16975 -.12089
C 1.25232 -4.03298 -.48907
C 1.61551 -3.32156 -1.65577
C -1.13407 -3.74299 -.95757
C -.81219 -3.05569 -2.15923
C .56655 -2.78563 -2.47104
C .86803 -1.64125 -3.32171
C 2.18290 -1.24510 -3.45817
C -3.19079 -2.47242 -2.39885
C -1.87085 -2.29958 -2.82770
C -3.62497 -2.73720 1.61917
C -2.51493 -3.37795 1.09275
C -2.44022 -3.58636 -.34118
C -3.48324 -3.12718 -1.13768
C 5.11999 1.51709 -1.44447
C 4.22002 1.51690 -2.58791
C 5.59405 .31566 -.93160
C 3.87458 .32427 -3.20030
C 2.52962 .13750 -3.66021
C -.85664 1.68747 -3.30702
C -2.17115 1.29312 -3.45056
C .17134 .71432 -3.60385
C 1.54686 1.11989 -3.50304
C 1.88076 2.34119 -2.80014
C 3.19954 2.51049 -2.36659
C -2.51752 -.08725 -3.66739
C -.15941 -.66529 -3.61138
C -1.53523 -1.07146 -3.51787
C 5.27836 1.12355 1.37280
C 4.73625 2.35446 .83651
C 5.68352 .11837 .50378
C 4.66578 2.55205 -.53828
C 3.48881 3.15363 -1.09864
C 3.62370 2.73842 1.65472
C 2.51502 3.38410 1.13172
C 2.44402 3.60549 -.30046
C -1.60797 3.35267 -1.62735
C 1.13953 3.76759 -.91872
C -1.24782 4.05354 -.45339
C .09114 4.18683 -.08070
C -.55713 2.82380 -2.44486
C .82064 3.09101 -2.12731
C 4.67634 -1.59524 1.95192
C 4.22933 -.55043 2.85881
C 5.32077 -1.26646 .78062
C 4.49332 .78508 2.55393
C 3.45582 1.73953 2.70636
C 2.16696 1.37898 3.16248
C 1.27841 3.33630 1.90666
C .18184 3.97498 1.36097
C 2.03686 -3.89263 .72795
C 3.28237 -3.26949 .73209
C 3.66624 -2.62838 1.94565
C 2.67144 -2.25970 2.87994
C .52267 -.47423 3.52031
C .24795 -1.88015 3.18142
C 1.34929 -2.72497 2.77043
C 1.12705 -3.73716 1.81492
C -2.95865 .90243 3.35366
C -1.90731 -.02745 3.48833
C -1.06723 -2.27556 2.84514
C 1.06209 2.26500 2.86972
C 1.90019 .01086 3.49328
C 2.95195 -.91757 3.35242
C -1.12893 3.73652 1.84801
C -1.35430 2.71534 2.79329
C -.25414 1.86651 3.19893
C -.52996 .45744 3.52351
C -2.67684 2.24895 2.89485
C -2.17298 -1.39246 3.14386
C -1.28042 -3.33757 1.87124
C -.18232 -3.97111 1.32238
C -3.46050 -1.74859 2.68102
C -4.67929 1.59349 1.95552
C -4.23477 .53995 2.85354
C -4.49758 -.79273 2.53513
C -5.32042 1.27561 .77950
C -2.03570 3.90228 .76028
C -3.28146 3.27931 .75533
C -3.66905 2.62665 1.96161
C -4.32502 .97621 -2.64220
C -3.25162 1.92144 -2.72685
C -2.96930 2.82301 -1.70005
C -5.14804 .97157 -1.52847
C -4.90330 1.91029 -.46951
C -3.82906 2.81479 -.51853
C -5.11340 -1.48708 -1.47157
C -4.21072 -1.47644 -2.61291
C -3.86373 -.27797 -3.21270
C -5.58872 -.29054 -.94826
C -5.27936 -1.12029 1.34887
C -4.73554 -2.34588 .80201
C -4.66152 -2.53064 -.57440
C -5.68215 -.10675 .48859
