100 

C 3.02963 2.15259 -2.64225
C 3.75404 .96650 -2.51211
C 4.75395 .94503 -1.49900
C 5.26054 -.30985 -.97313
C 4.78845 -1.48876 -1.49095
C 1.73808 -.27975 -3.33791
C 3.12643 -.26423 -2.94981
C 3.74657 -1.47243 -2.51392
C 1.63848 -2.68519 -2.78416
C 2.99824 -2.63107 -2.37186
C .88912 -3.75419 -2.25585
C 1.72676 2.15822 -3.22366
C -2.46515 2.31073 -2.99202
C -1.09011 2.29178 -3.23107
C -.43758 1.01905 -3.48132
C 1.02715 .97490 -3.47627
C -.48270 -1.47469 -3.24984
C .96882 -1.50639 -3.24570
C -1.18742 -.19328 -3.38922
C 5.10814 -1.18338 1.31890
C 4.59269 -2.43058 .77972
C 5.47037 -.15689 .45928
C 4.52869 -2.61641 -.61333
C 3.44791 -3.33450 -1.16008
C 2.47000 -3.92501 -.32550
C 1.28076 -4.34941 -.96651
C 4.48461 1.52527 1.95782
C 4.05483 .45096 2.84031
C 5.13559 1.22130 .78288
C 4.32313 -.87505 2.50472
C 3.28783 -1.84240 2.62147
C -.67992 -.61069 3.53530
C -.43940 -1.96988 3.02619
C 1.99155 -1.51388 3.06682
C 1.74743 -.16566 3.48804
C 2.78243 .78883 3.36211
C 1.09243 -3.42857 1.69942
C .87428 -2.36954 2.69315
C -2.45816 -4.12131 .69917
C -1.36753 -3.76771 1.54516
C -1.57167 -2.75792 2.54139
C -2.88011 -2.26131 2.71521
C 2.39429 -3.54122 1.05260
C 3.48527 -2.82947 1.57952
C -.01948 -4.05265 1.08951
C .13328 -4.61268 -.23384
C -.16368 4.60842 -.59514
C 1.20209 4.29986 -.48490
C 4.71508 1.88846 -.43894
C 3.44886 2.54426 1.97044
C 3.05993 3.25946 .82249
C 3.75016 2.93207 -.42844
C 1.74117 3.84728 .79725
C 2.47179 2.13615 2.90707
C 1.16678 2.59584 2.85205
C .82212 3.58697 1.87070
C -1.54285 3.30683 2.55590
C -.58601 3.95167 1.73984
C -1.05496 4.50920 .54172
C .39138 .31073 3.61392
C .14247 1.74571 3.45694
C -3.10860 -.90734 3.16849
C -2.03614 -.09344 3.56091
C -2.25741 1.29555 3.49014
C -1.15680 2.19495 3.40118
C 3.08106 3.16512 -1.63819
C 1.83827 3.88333 -1.67568
C -2.28403 4.13916 -1.37567
C -.90310 4.29078 -1.76396
C -.32861 3.42755 -2.72994
C 1.06064 3.33663 -2.72747
C -3.07096 3.23758 -2.03605
C -2.86067 3.06404 2.10627
C -3.26216 3.41543 .79760
C -2.36924 4.23284 .06612
C -4.71715 1.33761 .74401
C -4.18141 2.52737 .07992
C -4.11347 2.52948 -1.32676
C -5.20672 .28801 -.05292
C -4.77451 -1.41829 1.65496
C -4.23468 -.37217 2.49082
C -4.25360 .99211 2.09039
C -3.32597 1.83225 2.72132
C -5.23255 -1.09387 .39602
C -4.15765 -3.10645 -.54851
C -3.71880 -3.48613 .80049
C -3.95267 -2.60638 1.85339
C -4.85735 -1.93441 -.74058
C -.96199 -4.49028 -1.17571
C -3.12610 -3.45941 -1.46951
C -2.22007 -4.30710 -.72650
C -4.33544 1.32611 -2.06663
C -3.22031 1.11895 -2.97835
C -2.60923 -.13780 -3.12189
C -4.91970 .25156 -1.46127
C -4.50526 -1.08263 -1.83411
C -3.32419 -1.29288 -2.58199
C -2.62091 -2.52916 -2.40720
C -1.21617 -2.62356 -2.80850
C -.49828 -3.75586 -2.33449
