100 

C .20387 -4.75983 -.84711
C -.64009 -4.80229 .23593
C -2.00439 -4.37505 .09180
C -2.42752 -3.96918 1.41082
C -3.51385 -3.15623 1.55262
C 1.60379 -4.53946 -.64643
C -.15434 -4.34816 1.51325
C 1.14124 -3.88652 1.67675
C 2.09517 -4.08700 .59056
C 3.64852 -2.53766 1.71436
C 3.35317 -3.34470 .59754
C 3.96616 -2.99721 -.62987
C -4.34792 .16501 2.45071
C -4.49727 -1.15770 2.12000
C -3.49173 -2.10752 2.53196
C -1.26266 -3.75039 2.21945
C 2.61945 -2.25738 2.71822
C 1.34461 -2.80939 2.64545
C .22918 -2.04346 3.15470
C -1.11482 -2.56429 2.94895
C -2.26864 -1.70542 3.11007
C .41246 -.66584 3.51213
C -2.06870 -.29304 3.39268
C -3.13856 .58783 3.12061
C -5.22494 -.54305 -.14641
C -5.18084 .86393 .23888
C -4.94393 -1.52393 .77874
C -4.74075 1.20719 1.51503
C -3.83390 2.29308 1.67469
C -4.72300 1.61730 -.88396
C -3.85569 2.71859 -.74007
C -3.40782 3.07307 .59422
C -.05716 4.12087 1.96486
C -1.34513 3.61294 1.94562
C -2.18588 3.85730 .77938
C -1.60051 4.44370 -.34398
C 2.82604 -.96231 3.22741
C 1.73611 -.11516 3.52604
C -.74402 .24760 3.52032
C 1.94926 1.31975 3.41215
C .81029 2.19213 3.27145
C -.53969 1.65041 3.31987
C -1.61482 2.46156 2.79862
C -2.88821 1.92004 2.72789
C 1.00091 3.45653 2.69551
C -3.63417 .93048 -2.96539
C -4.69910 -.66489 -1.48119
C -4.55580 .67683 -1.98694
C -2.90635 2.17864 -2.96833
C -1.92168 3.94082 -1.67114
C -3.01139 3.07266 -1.88086
C -2.74689 -.11637 -3.39872
C -2.75037 -1.38311 -2.81307
C -3.78854 -1.68457 -1.82769
C -3.58206 -2.76543 -.88363
C -4.21305 -2.69099 .37456
C -1.52344 -2.15255 -2.87078
C -1.44232 -3.36904 -2.08140
C -2.41997 -3.63187 -1.02744
C -.21625 -4.02808 -2.02456
C -1.52482 .50681 -3.80239
C .90715 .65818 -3.59609
C -.30985 -.14782 -3.73639
C -.32279 -1.55584 -3.38736
C 3.26786 .72523 -2.99552
C 2.15862 -.02193 -3.42719
C 2.19761 -1.46880 -3.27286
C .95148 -2.22373 -3.23001
C .96060 -3.48794 -2.63766
C -.71138 3.79998 -2.38857
C -.50502 2.67506 -3.22015
C -1.63621 1.92525 -3.55916
C 1.90005 2.71102 -2.58189
C .80466 2.04863 -3.26363
C 3.11187 2.04630 -2.50046
C 2.09448 -3.94708 -1.87517
C 3.24986 -3.22071 -1.87665
C 3.34358 -2.03804 -2.68463
C 4.73959 1.02225 -1.18836
C 4.35276 .12530 -2.26431
C 4.36896 -1.22727 -2.07955
C 4.72195 1.39131 1.19348
C 4.99675 .52001 .11626
C .36557 4.32775 -1.57275
C 2.48914 3.90502 -.42253
C 1.64584 3.78680 -1.60991
C 4.12620 2.66459 .98797
C 3.67844 3.05972 -.29614
C 4.03054 2.23007 -1.37756
C 3.30727 2.95677 2.15647
C 2.22769 3.78911 2.03736
C 1.91162 4.40476 .75693
C .52406 4.74983 .81075
C -.21679 4.80959 -.35479
C 4.04729 -.46683 2.63474
C 4.21221 .87451 2.46217
C 3.20580 1.78020 2.95983
C 4.68916 -1.77998 -.76446
C 4.92030 -.93103 .33986
C 4.47683 -1.40038 1.60811
