100 

C -4.32920 -.49595 -1.90995
C -3.43082 -.74375 -2.98554
C -5.03240 -.07924 .81282
C -4.84382 -1.34868 .34974
C -4.61900 -1.58087 -1.05861
C -4.44207 .31247 2.06748
C -3.89883 -2.81484 -1.16529
C -2.98663 -3.03357 -2.21169
C -2.78096 -1.97942 -3.14383
C -1.90015 -3.92758 -1.97131
C -3.56525 -3.25098 .17267
C -2.41364 -3.97789 .43291
C -1.70069 -4.49168 -.71025
C .31247 -4.82911 .60270
C -.29562 -4.82739 -.61303
C -2.37657 1.57852 3.43702
C -2.36503 .17874 3.36740
C -3.44309 -.48590 2.66884
C -3.24453 -1.83841 2.17421
C -4.04197 -2.27261 1.10418
C -.97127 -1.91008 3.24854
C -2.01171 -2.55680 2.45604
C -1.68193 -3.69646 1.65884
C -.37511 -4.26364 1.76450
C -.57990 -3.70167 -2.59165
C -.31422 -2.50418 -3.32407
C -1.44304 -1.72819 -3.68799
C -1.31721 -.35455 -3.88661
C 1.10827 -.48985 -3.59376
C -.07174 .28985 -3.82251
C .38993 -4.25298 -1.77182
C 1.69442 -3.68049 -1.66339
C 2.02077 -2.53528 -2.45507
C .97839 -1.88826 -3.24346
C 4.04935 -2.24952 -1.10178
C 3.25127 -1.81297 -2.16989
C 3.44518 -.45658 -2.65658
C 2.36473 .20758 -3.35104
C 2.37123 1.60808 -3.41191
C 3.57646 -3.23477 -.17603
C 2.42749 -3.96498 -.43934
C 1.71639 -4.48772 .70111
C -2.52860 .29118 -3.44470
C 1.13293 2.35483 -3.40534
C -.10180 1.70784 -3.53225
C -1.26881 2.32388 -2.96997
C -2.51876 1.56200 -2.90116
C -1.09270 3.46273 -2.11471
C -2.14408 3.81547 -1.23016
C 2.67178 3.56579 -2.17274
C 1.29066 3.50877 -2.60932
C .21687 3.96013 -1.81101
C 2.95326 3.97616 -.88569
C 1.85628 4.33259 -.00574
C .50839 4.41492 -.46621
C 4.34949 1.77410 -2.01500
C 3.34772 2.40271 -2.72350
C 4.44148 .34250 -2.05028
C -3.39127 3.07262 -1.18162
C -3.56606 1.90571 -1.92807
C -4.43917 .86871 -1.39782
C -3.93867 3.23140 .13019
C -4.67014 2.19567 .68771
C -4.97566 1.04508 -.10388
C -2.96635 3.95885 .92585
C -4.35546 1.74457 2.04099
C -3.35594 2.37308 2.75321
C -2.68411 3.54199 2.20994
C -.52211 4.41009 .51056
C -1.86993 4.32463 .04900
C -1.30247 3.48801 2.64679
C -.22944 3.94872 1.85237
C 2.13281 3.81704 1.27079
C 1.08231 3.45494 2.15311
C 2.51495 1.55542 2.92802
C 1.26200 2.31150 3.00118
C .09670 1.68757 3.55905
C -1.14104 2.33021 3.43534
C 2.52860 .28149 3.46384
C 4.97183 1.06466 .12600
C 4.66327 2.21844 -.65886
C 3.92891 3.24769 -.09444
C 4.43701 .87856 1.41908
C 3.56111 1.90881 1.95641
C 3.38273 3.07914 1.21696
C 4.62450 -1.56782 1.06451
C 4.84870 -1.32674 -.34272
C 5.03366 -.05410 -.79809
C 3.43424 -.74721 2.99742
C 4.33174 -.48971 1.92241
C 1.91410 -3.92982 1.96475
C 2.78858 -1.98591 3.14865
C 2.99762 -3.03332 2.20936
C 3.90924 -2.80515 1.16370
C .07126 .26822 3.84095
C -1.10627 -.51445 3.60657
C 1.31913 -.37121 3.90159
C 1.44979 -1.74301 3.69466
C .32346 -2.52081 3.32608
C .59307 -3.71281 2.58662
