100 

C -4.74872 .78253 -.98173
C -4.46590 2.06400 -.42999
C -4.20639 -1.89686 -1.88164
C -3.92495 -.82914 -2.69908
C -4.23730 .52416 -2.26741
C -3.29950 -3.00349 -1.83879
C -3.26494 1.39134 -2.84863
C -2.84825 2.57164 -2.21653
C -3.56478 2.95097 -1.05130
C -1.48700 3.05042 -2.42610
C -.93499 4.03227 -1.48106
C .42692 4.30826 -1.52735
C -2.32240 .58292 -3.57165
C -1.01421 .96927 -3.73224
C -.60728 2.29513 -3.25297
C 1.73430 1.65103 -3.72948
C .80662 2.61552 -3.27688
C 1.30193 3.61683 -2.42646
C -1.21553 -4.52955 -.78922
C -.97188 -3.79113 -1.96716
C -2.04549 -2.96612 -2.49019
C -1.72177 -1.80687 -3.29309
C -2.69184 -.80505 -3.42724
C .73120 -2.33522 -3.16335
C -.33121 -1.45721 -3.57561
C -.03005 -.09501 -3.92356
C 1.30701 .29096 -4.03482
C -1.63008 4.29258 -.21432
C -2.91498 3.74420 -.01658
C 1.19763 4.62346 -.33483
C .56059 4.67097 .89123
C -.87775 4.55722 .94724
C 2.46971 3.99652 -.44377
C 1.12171 3.97683 1.99957
C 2.32978 3.27887 1.89515
C 3.05085 3.31196 .63622
C 4.78863 .55680 -1.26112
C 4.24483 1.83488 -1.04116
C 4.03600 2.27281 .33366
C 4.39882 1.41040 1.37170
C 2.57451 3.47308 -1.79596
C 3.04572 1.59364 -3.21325
C 3.42223 2.40770 -2.10557
C -1.20859 3.89387 2.16956
C -2.38552 3.15601 2.30261
C -3.33309 3.27564 1.24120
C -4.34149 2.26012 1.00927
C -4.42086 1.18634 1.84991
C .01437 3.46992 2.79702
C .09679 2.27059 3.47973
C -1.12034 1.45540 3.62133
C -2.35200 1.93432 3.08826
C -3.41845 1.00717 2.89585
C .31364 -.46653 4.15146
C -.98118 .04010 3.88254
C 3.65101 1.36381 2.61896
C 2.54564 2.18723 2.83483
C 1.42715 1.67394 3.61713
C 1.49906 .36947 4.09807
C -4.72050 -1.65378 -.53524
C -4.95420 -.34475 -.06590
C -4.76506 -.12505 1.32638
C -4.08314 -1.07390 2.11528
C -3.70811 -2.32860 1.60853
C -4.17697 -2.65630 .31443
C -2.38064 -4.26724 .01406
C -3.42409 -3.57022 -.51941
C -1.97521 -.89233 3.46228
C -3.22399 -.36649 3.05586
C .67135 -1.76715 3.80001
C -.24022 -2.63793 3.14737
C -1.60333 -2.23377 3.03109
C -2.48678 -2.95726 2.12004
C -1.94671 -4.00730 1.38054
C 1.74487 -3.57997 1.89534
C .32782 -3.64781 2.27742
C -.55583 -4.34301 1.44912
C 2.11948 -4.12064 .66671
C 4.32119 -.81390 2.11426
C 3.68461 .01218 3.09580
C 2.60608 -.48185 3.80760
C 3.78960 -2.06502 1.75840
C 2.62907 -2.57039 2.49445
C 2.10152 -1.78966 3.52057
C 4.64168 -1.67586 -.55155
C 5.06132 -.33440 -.17861
C 4.88430 .08757 1.11819
C 3.17444 -3.52290 -.12836
C 4.02036 -2.52998 .38979
C 3.48156 .21767 -3.30098
C 2.73489 -3.48205 -1.47801
C 3.11118 -2.43710 -2.33113
C 4.19569 -1.63390 -1.90033
C 4.35739 -.27282 -2.37553
C -.15492 -4.79265 .13870
C 1.14350 -4.62100 -.25907
C 1.42073 -4.06987 -1.55704
C .40571 -3.50893 -2.33927
C 2.09519 -1.87508 -3.21730
C 2.35581 -.59019 -3.74134
