100 

C 2.73451 -1.27513 3.44204
C 3.60622 -.37692 2.81615
C 4.43099 -.91550 1.80033
C 5.07124 -.06852 .81863
C 4.86772 1.28911 .87101
C 3.94727 1.84479 1.85956
C 3.23435 1.03256 2.78284
C 1.56462 -.80785 4.13368
C 1.09990 .50275 3.96789
C 4.87738 -.07213 -1.62797
C 4.65955 1.36635 -1.59247
C 5.05475 -.77238 -.45681
C 4.70041 2.04371 -.35958
C 3.77472 3.07002 -.11204
C 2.82462 3.45180 -1.09526
C 1.72986 4.21995 -.63703
C -1.16396 -.34486 4.43418
C -.32632 .74771 4.13242
C 1.93737 1.45561 3.23931
C -.10867 2.88220 2.78957
C 1.32960 2.65326 2.68030
C 2.06570 3.39786 1.70741
C 3.34820 2.96636 1.29531
C 1.38497 4.25216 .79592
C 2.28707 -2.14080 -3.29398
C 3.39630 -1.89559 -2.48413
C 4.00907 -.62238 -2.64225
C 2.65418 2.65842 -2.27655
C 3.63340 1.66834 -2.52000
C 3.28313 .45011 -3.21475
C 1.32519 2.52145 -2.87763
C 1.98971 .26156 -3.74464
C 1.60677 -1.07571 -3.95357
C 3.49687 -2.58649 -1.19400
C 4.35020 -2.02842 -.24800
C 1.31635 -3.15579 -2.96135
C 1.36283 -3.80752 -1.69228
C 2.39226 -3.44665 -.73679
C .15531 -4.34599 -1.23262
C .08676 -2.77395 -3.52370
C -1.14800 -3.19964 -2.97709
C -1.08551 -4.12334 -1.92086
C -3.28198 -3.42097 -1.11201
C -2.14314 -4.18310 -.93831
C -3.08691 -.01529 -3.40440
C -2.11129 -.96778 -3.64631
C -2.30340 -2.31819 -3.10811
C -3.40344 -2.55526 -2.26990
C -1.43875 1.86145 -3.40976
C -.76678 -.48338 -3.98622
C .24030 -1.43425 -4.07012
C -2.76316 1.39398 -3.32119
C -.39471 .91895 -3.78076
C .56338 4.31707 -1.38113
C .29350 3.39159 -2.45214
C .97321 1.28027 -3.59270
C -1.10125 3.08877 -2.73983
C -2.10383 3.73233 -1.97064
C -.12182 -4.43781 .16698
C .79305 -4.00892 1.11213
C 2.11702 -3.58064 .66093
C 2.96755 -2.89304 1.61360
C 4.05598 -2.13207 1.15538
C 2.45566 -2.54933 2.88054
C -1.17750 -3.35061 2.56358
C .25559 -3.57934 2.40874
C 1.12288 -2.92955 3.28538
C -1.61505 -2.46222 3.54793
C -.68596 -1.69841 4.32537
C .65915 -1.92496 4.19047
C -2.08513 -3.62059 1.45743
C -3.28051 -2.81283 1.27715
C -1.55841 -4.29880 .35348
C -3.86968 -2.76249 .00975
C -4.21840 -.49882 1.70103
C -3.56059 -1.70838 2.19012
C -2.79185 -1.63169 3.35176
C -4.02036 .69111 2.40568
C -4.46682 .92490 -1.77968
C -4.19399 -.26708 -2.51552
C -4.29575 -1.49511 -1.89627
C -4.63100 .89647 -.38298
C -4.61763 -.39901 .29293
C -4.52287 -1.55554 -.48119
C -3.68001 3.20548 -.30910
C -3.36063 3.11912 -1.73326
C -3.70425 1.98401 -2.42856
C -3.96815 1.97430 1.73075
C -4.26142 2.10059 .36721
C -.47687 4.68265 -.44332
C -2.93054 2.74279 2.33453
C -2.18359 3.66362 1.59906
C -2.67966 3.99104 .30641
C -1.77164 4.42733 -.74177
C -2.53435 -.37784 3.99759
C -3.11117 .76603 3.50675
C -2.31442 1.95723 3.37041
C -.92687 1.94066 3.55323
C -.75701 3.78687 1.88865
C .02555 4.47152 .90863
