100 

C 4.57874 1.44762 1.13547
C 5.03915 .68095 -.00775
C 2.71598 2.66634 2.89994
C 3.06551 3.30006 1.72921
C 4.04731 2.71564 .87002
C 1.32668 2.63214 3.28867
C -2.06165 3.14011 1.76257
C -3.34443 2.61268 1.90423
C -1.02404 2.65244 2.64783
C .32003 3.16360 2.48133
C .69437 3.81879 1.23428
C 2.04486 3.89915 .91222
C 3.71849 3.13099 -.49691
C 4.06572 2.31366 -1.62188
C 4.78864 1.13131 -1.37480
C 3.19395 2.34172 -2.74799
C 2.49843 3.82152 -.46188
C .12641 3.78924 -1.19832
C 1.54755 3.70816 -1.51950
C 1.94825 3.05451 -2.68231
C -2.16117 3.32689 -1.87204
C -.82128 3.30380 -2.18366
C -1.68802 3.73626 .48609
C -.29286 3.90458 .15205
C -2.61648 3.67429 -.56115
C 2.99344 1.19068 -3.55136
C 3.66974 -.02512 -3.26325
C 4.61343 -.02183 -2.19371
C 4.78388 -1.16749 -1.36409
C 4.05590 -2.34840 -1.60041
C 3.70473 -3.15138 -.46752
C 2.98780 -1.24034 -3.54003
C 3.18330 -2.38393 -2.72610
C -.39469 2.36528 -3.20609
C .98396 2.32598 -3.48993
C 1.59752 1.18487 -3.99179
C -1.20297 1.23426 -3.51763
C .85228 -.02204 -4.11414
C 1.59163 -1.23142 -3.98040
C 5.03708 -.70297 -.00117
C 4.03579 -2.72285 .89552
C 4.57345 -1.45450 1.14990
C 3.05121 -3.29308 1.75993
C 2.70490 -2.64558 2.92454
C 2.02761 -3.89584 .94879
C -1.70477 -3.72049 .52092
C -2.63346 -3.66474 -.52665
C -.31060 -3.89887 .18854
C .67779 -3.80534 1.26936
C .30691 -3.13599 2.50978
C 1.31581 -2.60125 3.31244
C 1.93373 -3.08986 -2.65348
C 1.53020 -3.72921 -1.48472
C 2.48113 -3.83517 -.42598
C -.83725 -3.31946 -2.15305
C .10865 -3.79903 -1.16342
C -2.17741 -3.33250 -1.84133
C 3.32402 -1.39282 3.25655
C 4.17036 -.73089 2.34465
C 4.17319 .73880 2.33779
C 2.36614 -.66765 4.05880
C 2.36888 .70098 4.05262
C 3.32973 1.41384 3.24381
C 1.10654 -1.37423 4.02942
C -2.49646 -.70562 3.27083
C -3.57267 -1.37289 2.69103
C -1.24312 -1.41723 3.39799
C -.11223 -.70748 3.95453
C -.10926 .75019 3.94798
C 1.11220 1.41258 4.01692
C -2.07482 -3.10978 1.79130
C -1.03484 -2.61779 2.67156
C -3.35545 -2.57594 1.92838
C -2.49351 .75138 3.26424
C -1.23735 1.45924 3.38514
C -3.56684 1.41769 2.67808
C -5.14636 -1.40495 .95252
C -4.69512 -.66934 2.11442
C -4.69213 .71351 2.10790
C -5.49747 -.71123 -.20260
C -4.24287 -2.32459 -1.56916
C -3.94703 -3.09276 -.37157
C -4.33141 -2.60415 .86136
C -4.96855 -1.15447 -1.48402
C .97260 -2.36425 -3.46811
C -.40657 -2.39309 -3.18450
C -2.60227 -1.25606 -3.09333
C -3.09630 -2.38776 -2.43090
C -4.23159 2.33160 -1.59099
C -3.08432 2.38092 -2.45283
C -2.59619 1.24064 -3.10488
C -.55360 -.01675 -3.85753
C -4.96298 1.16589 -1.49496
C -4.53090 .00118 -2.22823
C -3.32589 -.00525 -2.96108
C -1.20958 -1.26096 -3.50646
C -5.14008 1.44015 .93915
C -4.31981 2.63489 .83664
C -3.93268 3.10983 -.40080
C -5.49432 .73718 -.20935
