100 

C -5.16658 1.41450 .98288
C -4.82347 .69014 2.19992
C -5.46300 .71500 -.16962
C -4.82257 -.68558 2.20785
C -3.75689 -1.38597 2.87825
C -2.42838 3.32072 2.23622
C -4.32586 2.58644 .91506
C -3.61914 2.65110 2.16665
C -1.33733 -2.74896 3.02049
C -1.35419 -1.42164 3.45002
C -2.62360 -.71301 3.38696
C -2.62486 .73337 3.37914
C -3.75929 1.39938 2.86280
C -1.34176 2.76672 2.99029
C -1.35685 1.44409 3.43427
C -1.88391 3.93941 1.06196
C -2.41103 3.68072 -.20077
C -3.69885 2.98547 -.28308
C -4.04708 2.26420 -1.49848
C -4.90907 1.15370 -1.42566
C -3.12424 2.29631 -2.58539
C -.45705 4.03559 1.27601
C .47700 4.06351 .19820
C -.01333 3.81912 -1.11633
C -1.45983 3.63465 -1.32746
C -1.86083 2.99900 -2.48397
C 2.28047 3.33537 -1.80235
C .91401 3.30465 -2.08645
C 3.44132 2.60907 1.94525
C 2.18213 3.21333 1.79735
C 1.85295 3.84931 .52924
C 2.77025 3.71638 -.52975
C 3.56901 1.40795 2.67587
C -.14223 3.34519 2.44470
C 1.18108 -1.41333 3.23897
C -.07121 -.69179 3.51094
C -.07263 .71663 3.50318
C 1.17856 1.43678 3.22342
C 1.12395 2.73515 2.62206
C 2.41895 .73516 3.17650
C -2.93137 1.19209 -3.42481
C -3.63697 -.02583 -3.19000
C -4.65219 -.02143 -2.22244
C -2.92915 -1.24514 -3.41044
C .47310 2.35241 -3.08140
C -.91144 2.30950 -3.33142
C -1.52972 1.18021 -3.85641
C 1.28022 1.22225 -3.40608
C -.78853 -.02810 -3.98509
C -1.52772 -1.23594 -3.84199
C -3.12015 -2.34058 -2.55874
C -4.04332 -2.29809 -1.47233
C -4.90686 -1.18818 -1.41221
C -5.46205 -.73691 -.16125
C -5.16535 -1.42353 .99905
C -2.40555 -3.69862 -.15937
C -3.69461 -3.00603 -.24919
C -4.32310 -2.59522 .94451
C -1.87814 -3.94363 1.10583
C -2.42398 -3.31252 2.27310
C -3.61578 -2.64528 2.19646
C -1.85604 -3.04054 -2.44954
C 2.28501 -3.36409 -1.76493
C .91868 -3.33810 -2.04908
C -.00753 -3.84380 -1.07345
C -1.45427 -3.66342 -1.28627
C .48331 -4.07440 .24326
C -.45097 -4.03607 1.32056
C 2.68469 -1.26821 -2.99853
C .47663 -2.39693 -3.05399
C -.90782 -2.35855 -3.30426
C 3.19075 -2.40167 -2.35054
C 1.28199 -1.26948 -3.39164
C 3.18759 2.36771 -2.37730
C 2.68314 1.22671 -3.01275
C .62509 -.02591 -3.73611
C 3.41250 -.01964 -2.87484
C 4.62956 -.01511 -2.15799
C 4.08090 -3.12406 -.31785
C 2.77576 -3.73130 -.48855
C 1.85904 -3.85481 .57186
C 4.44629 -2.62751 .91937
C 3.44562 -2.59630 1.97380
C 2.18742 -3.20438 1.83273
C 5.60162 -.72697 -.13532
C 5.07414 -1.16882 -1.41720
C 4.35217 -2.34082 -1.50534
C 5.23300 -1.41638 1.01886
C 4.34887 2.31724 -1.53111
C 5.60054 .72025 -.14334
C 5.07272 1.14724 -1.43006
C 4.72296 -.67875 2.15498
C 4.72191 .69607 2.14757
C 5.23062 1.42184 1.00315
C 4.44211 2.63037 .89028
C 4.07636 3.11279 -.35236
C -.13707 -3.33211 2.48138
C 1.12837 -2.71839 2.65196
C 3.57142 -1.38676 2.69092
C 2.42031 -.71036 3.18429
