100 

C -1.96216 -4.05517 1.03314
C -2.71969 -3.76532 -.10029
C -3.94483 -3.04680 .10336
C -4.51853 -2.23222 -.94916
C -3.88611 -2.15636 -2.15879
C -.53325 -4.26036 .94700
C .16351 -4.20223 -.29890
C -.57712 -3.81485 -1.46841
C -2.02324 -3.62875 -1.38439
C -2.63784 -2.87077 -2.37757
C 1.53665 -3.23278 -2.52973
C .13868 -3.17911 -2.52906
C 3.50706 -3.09028 .94750
C 2.20888 -3.61914 .99827
C 1.57864 -4.05168 -.24436
C 2.25884 -3.78160 -1.45686
C -3.76684 1.51512 -2.73461
C -4.36107 .29222 -2.31996
C -3.80757 -.88428 -2.85999
C -.48029 -2.12768 -3.30873
C -1.85720 -2.07321 -3.28572
C -2.56014 -.85224 -3.55430
C .28096 -.91832 -3.63982
C -1.84708 .34194 -3.74660
C -2.54594 1.53225 -3.44330
C -5.00230 .23236 -1.00334
C -5.08102 -1.03244 -.34665
C -3.78602 2.69086 -1.88210
C -4.30833 2.60392 -.61887
C -4.95392 1.37728 -.18072
C -2.55270 3.41379 -2.08882
C -1.87518 4.04653 -1.00918
C -.52858 4.33673 -1.21864
C 1.73415 1.51436 -3.11813
C -.40473 2.75270 -3.09519
C -1.81591 2.72508 -3.07534
C 2.34285 2.57056 -2.30496
C 1.55510 3.63360 -1.89854
C .19510 3.73812 -2.29204
C .35322 1.56577 -3.44787
C 2.33249 -2.17984 -3.14317
C 1.72462 -.95336 -3.49106
C -.38400 .32356 -3.74499
C 2.45304 .26096 -3.26414
C 3.76954 .17489 -2.76532
C -4.73015 1.25639 1.22468
C -4.67254 -.00067 1.84759
C -4.91789 -1.14961 1.04610
C -3.80191 -.13947 2.98727
C -3.84002 2.32801 1.63834
C -1.60643 2.81258 2.52447
C -2.86827 2.11865 2.61548
C -2.93675 .89026 3.35725
C .76322 2.84479 3.10652
C -.46976 2.26969 3.27383
C -2.34184 3.80306 .35963
C -3.56676 3.15422 .50748
C .38695 4.53541 -.11535
C -.01766 4.19847 1.20719
C -1.37052 3.71367 1.44368
C 1.00083 3.84213 2.09725
C -3.14155 -1.41340 3.27727
C -3.32319 -2.53519 2.42886
C -4.22696 -2.41824 1.32659
C -2.23520 -3.42593 2.29172
C -.49547 .89378 3.78839
C -1.72655 .28556 3.88933
C -1.86934 -1.13147 3.82773
C .70757 .05785 3.72251
C -.73764 -1.94904 3.58220
C -.97946 -3.16203 2.91786
C 1.99252 2.10628 3.32209
C 1.98671 .71207 3.49173
C .58486 -1.33925 3.52552
C 3.12833 -.04276 3.03638
C 2.95779 -1.44869 2.70602
C 1.68907 -2.07958 2.88712
C 1.38276 -3.23715 2.10052
C .05127 -3.74181 2.09902
C 3.89621 -2.05305 1.82971
C 2.99632 2.74981 2.54651
C 4.07834 2.03155 2.09344
C 4.21198 .65706 2.45504
C 1.68025 4.21269 -.56661
C 2.68969 3.76829 .31699
C 2.36459 3.73061 1.68597
C 5.19453 .54846 -.94459
C 4.30948 1.19009 -1.87188
C 3.56435 2.31214 -1.53267
C 5.23577 1.00383 .36713
C 4.53887 2.20075 .72093
C 3.73017 2.88536 -.20550
C 3.62547 -2.23951 -2.56518
C 5.19068 -.87246 -1.23068
C 4.36377 -1.06786 -2.41242
C 5.06425 .05151 1.45329
C 4.94193 -1.28748 1.17526
C 5.09843 -1.78003 -.18119
C 4.23992 -2.94332 -.30309
C 3.59089 -3.21487 -1.48764
