100 

C -3.61007 -2.69793 -1.22213
C -4.50841 -2.04956 -.35562
C -4.97276 -.71835 -.60148
C -3.14216 -1.97420 -2.39718
C -3.67537 -.70963 -2.64945
C -4.60109 -.07524 -1.76052
C -1.20760 -3.47498 -2.57468
C -1.84294 -2.27893 -2.97996
C .37976 -1.45910 -3.70957
C -1.04330 -1.25509 -3.57791
C -1.57523 .10832 -3.65050
C -2.87593 .32349 -3.24739
C 1.20525 -.33177 -3.99491
C 1.01532 -2.61521 -3.17647
C 2.38364 -2.52841 -2.66573
C .17792 -3.65174 -2.69265
C 2.78520 -3.43585 -1.65585
C -3.61726 3.28618 -.50252
C -4.39082 2.10809 -.54846
C -4.32130 1.35298 -1.74834
C -3.29912 1.59825 -2.69689
C .66293 1.02451 -3.97787
C -.67361 1.26828 -3.69090
C -1.01791 2.50791 -3.04050
C -2.38456 2.66030 -2.54178
C -2.65598 3.57432 -1.51060
C -4.67332 1.40597 .70780
C -4.97102 .02298 .66228
C -3.10268 3.81404 .75074
C -3.26352 3.09016 1.90668
C -4.06874 1.88496 1.89612
C -1.83066 4.44076 .48357
C -.75619 4.34249 1.39182
C .52074 4.60935 .86494
C 1.68616 1.91298 -3.59242
C 1.41081 3.02682 -2.78483
C .02738 3.35640 -2.53427
C -.27770 4.26438 -1.42442
C -1.58031 4.33085 -.91592
C .75360 4.62307 -.52705
C -3.47654 .97682 2.81194
C -3.62114 -.40473 2.67654
C -4.52528 -.85739 1.67762
C -4.36665 -2.17294 1.08398
C -3.45906 -3.04371 1.61047
C -2.23534 1.54640 3.30001
C -1.11543 .76113 3.57823
C -1.25717 -.70500 3.50887
C -2.51783 -1.26473 3.10221
C -2.55458 -2.60712 2.66499
C 1.22987 -.90016 3.65330
C -.07768 -1.52278 3.47963
C -.14035 -2.85694 2.94404
C -1.38363 -3.36524 2.54665
C 2.36601 -1.66710 3.37320
C 1.36067 .55058 3.67861
C .17775 1.39373 3.52478
C 2.61567 1.10723 3.42932
C -.86432 3.42252 2.52100
C -2.11752 2.85701 2.76839
C 1.71362 4.13383 1.52066
C 1.61972 3.20772 2.57018
C .30614 2.72605 3.00335
C 2.75196 2.39471 2.79804
C -1.66484 -4.20356 -1.39360
C -2.78197 -3.76579 -.66563
C -2.73935 -3.94731 .74334
C -1.51192 -4.24362 1.38214
C -.37891 -4.63695 .65330
C -.52949 -4.76007 -.75237
C 1.85353 -4.40015 -1.09244
C .60144 -4.52919 -1.61976
C 2.27395 -2.93658 2.69061
C 1.04622 -3.50621 2.39314
C .93995 -4.35487 1.20953
C 2.04297 -4.42694 .34446
C 4.14120 -1.79749 1.85634
C 3.39682 -3.03737 1.79756
C 3.24494 -3.69386 .60241
C 4.55611 -1.12796 .68334
C 4.24898 -1.74568 -.61348
C 3.66537 -3.03352 -.62679
C 4.39232 .99058 1.93406
C 3.72755 .31023 2.99318
C 3.60559 -1.06193 2.95927
C 4.75305 1.05803 -.47126
C 4.74548 .30247 .75611
C 2.73453 4.00576 .52494
C 4.28102 2.44887 -.50865
C 3.77602 3.06920 .67095
C 3.82935 2.33742 1.88565
C 2.89677 1.11780 -3.44391
C 3.84391 1.47302 -2.53389
C 3.66842 2.67757 -1.75143
C 2.47613 3.46816 -1.86636
C 2.12343 4.22919 -.75345
C 4.07018 -.93093 -1.77337
C 3.11407 -1.30998 -2.78246
C 2.54183 -.28052 -3.61013
C 4.45497 .45886 -1.68686
