100 

C 2.56218 .73516 -3.56644
C 2.95082 1.86567 -2.86124
C 4.13812 1.75016 -2.05751
C 4.29447 2.56281 -.86758
C 3.39656 3.54461 -.59565
C 1.17603 .50986 -3.88554
C .16176 1.39083 -3.51323
C .53561 2.62318 -2.81020
C 1.92701 2.85153 -2.50502
C 2.25027 3.76460 -1.47721
C -1.88654 2.96221 -2.25929
C -.48128 3.35477 -2.11191
C -.11506 4.21488 -1.01946
C 1.24699 4.38685 -.71731
C -2.83111 3.50688 -1.37532
C -2.23523 1.74020 -2.95559
C -1.18042 .87282 -3.45776
C -3.51030 1.19513 -2.75940
C 4.17509 .64771 2.26884
C 4.20440 1.80914 1.50724
C 4.79809 1.72498 .20282
C 1.71573 4.48629 .67092
C 2.96672 3.79292 .77293
C 3.19810 2.84102 1.77398
C .80563 4.39566 1.69334
C .99168 3.39198 2.70776
C 2.11551 2.56511 2.72574
C -.60690 4.48226 1.40480
C -2.39784 4.12919 -.14203
C -1.06612 4.47275 .05642
C 5.12398 .48322 -.36483
C 4.65229 -.60194 1.75929
C 5.04429 -.72193 .40059
C 3.91043 -1.63262 2.40125
C 3.60017 -2.82500 1.72956
C 2.40833 -3.51304 2.12354
C 2.91752 -.99917 3.27217
C 1.62648 -1.58619 3.49823
C 1.48346 -2.91564 3.08906
C -.95732 -2.68905 3.08087
C .20364 -3.44637 2.84053
C -2.12563 -3.17982 2.45071
C 1.95145 1.25341 3.29391
C 3.06800 .36815 3.17668
C -2.01169 -.41135 3.23377
C -.29202 2.90309 3.07950
C -.50811 1.55813 3.40378
C .64674 .71132 3.55810
C .45975 -.73199 3.62012
C -.84599 -1.28909 3.44041
C 4.71868 -1.93074 -.27855
C 4.01619 -2.96570 .37685
C 1.65138 -4.23785 1.20014
C 1.90274 -4.12452 -.21235
C 3.12273 -3.57757 -.58340
C -.56192 -4.34869 -.61730
C .75295 -4.04055 -1.12974
C -1.67901 -4.04125 -1.40682
C .29512 -4.29476 1.69002
C -2.05396 -4.06789 1.35899
C -.78680 -4.45066 .83200
C 4.27832 -1.90671 -1.67598
C 4.22070 -.68430 -2.40561
C 4.71203 .50225 -1.77995
C 3.19205 -.54125 -3.35636
C 3.28435 -2.88729 -1.83916
C .87777 -3.27752 -2.33809
C 2.16557 -2.68499 -2.69237
C 2.19260 -1.55265 -3.51466
C -1.54618 -3.21586 -2.54535
C -.30873 -2.74703 -2.96556
C -.27559 -1.43838 -3.62841
C .96336 -.89494 -3.90099
C -2.75764 -2.42262 -2.69384
C -2.69041 -1.09225 -3.17484
C -1.40414 -.53828 -3.55815
C -3.72555 -.23033 -2.81106
C -3.65399 -2.77311 -1.66613
C -4.53385 -1.80275 -1.10130
C -4.67719 -.59197 -1.80570
C -3.96475 -2.73056 1.12288
C -3.18777 -3.79497 .50280
C -3.00855 -3.79871 -.85514
C -4.96219 -.55134 .97817
C -4.68906 -1.77674 .35161
C -2.89265 1.84661 2.62292
C -1.84329 .99446 3.20192
C -4.05897 1.25907 2.13615
C -4.22300 -.15698 2.14851
C -3.24733 -.98646 2.71013
C -3.28299 -2.33971 2.28817
C -4.29545 2.89953 .33891
C -3.20459 3.63297 .92670
C -2.55629 3.15904 2.09207
C -1.27751 3.67376 2.34717
C -4.77770 1.77962 .98456
C -5.11438 .62964 -1.15639
C -4.43801 1.73440 -1.81109
C -4.07949 2.86095 -1.09633
C -5.26484 .64714 .22094
