100 

C -2.14924 -2.51254 -3.10862
C -3.14426 -2.60871 -2.10720
C -4.08203 -1.56266 -2.06897
C -4.86538 -1.28622 -.88760
C -4.63304 -2.02098 .25778
C -.91506 -3.25669 -3.00575
C .75649 -4.26703 -1.63462
C -.60456 -3.98285 -1.83796
C -1.51578 -3.92085 -.68617
C -2.82682 -3.33817 -.87586
C -3.58987 -3.03200 .26140
C -5.08513 .77841 .41634
C -4.82691 .01719 1.62492
C -5.06044 .15004 -.81019
C -4.60861 -1.35516 1.54653
C -3.57618 -1.94430 2.33028
C -3.99125 .80940 2.46689
C -2.95476 .25589 3.22224
C -2.76813 -1.18226 3.18137
C .35288 -3.27918 3.07974
C -.99190 -2.96154 2.93426
C -1.49841 -1.76483 3.59857
C -.59836 -.93426 4.26149
C 1.28325 -4.46919 -.30290
C .45332 -4.32041 .81644
C -.97293 -4.04098 .63710
C -1.69634 -3.48040 1.75512
C -2.99563 -3.03598 1.54959
C 1.08673 -3.94559 2.02279
C -2.90186 3.71184 -.23229
C -3.82387 2.70315 -.54527
C -4.44378 2.06490 .55601
C -3.82885 2.10886 1.83996
C -.72567 .51236 4.17022
C -1.82323 1.12093 3.57321
C -1.63383 2.40910 2.94775
C -2.69264 2.90018 2.07232
C -2.38227 3.84624 1.07644
C -3.66107 1.97180 -1.80240
C -4.32901 .75387 -1.91362
C -1.88213 4.12585 -1.17018
C -1.63963 3.36881 -2.33466
C -2.47180 2.20740 -2.62997
C -.32897 3.42383 -2.86124
C -.80076 4.66489 -.41752
C 1.57381 4.52749 .05662
C .52078 4.63121 -.90559
C .73375 4.06334 -2.18299
C .57486 1.06502 4.07616
C .81911 2.23611 3.36683
C -.31247 2.96457 2.83543
C -.05409 4.01166 1.84334
C -1.06827 4.41093 .97738
C 1.28570 4.22563 1.39562
C .22011 2.30453 -3.56410
C -.50915 1.16476 -3.80534
C -1.92585 1.14307 -3.40871
C -2.61384 -.12745 -3.44467
C -3.79069 -.30793 -2.70947
C -1.88776 -1.30002 -3.76960
C 1.64866 2.26779 -3.30808
C 2.37531 1.02502 -3.28623
C 1.69001 -.16129 -3.69582
C .24768 -.08415 -4.01489
C -.47330 -1.25590 -4.07532
C 3.51565 -1.48382 -2.73655
C 2.27748 -1.44495 -3.40921
C 2.85658 3.91183 -.28643
C 3.02381 3.21327 -1.49365
C 1.96315 3.32468 -2.46985
C 3.86776 2.03827 -1.52980
C 3.56433 .96221 -2.48667
C 4.13876 -.30472 -2.27240
C 1.44118 -2.63620 -3.33672
C .09069 -2.52276 -3.68200
C 1.77071 -3.67400 -2.43032
C 4.96850 .34171 -.07235
C 4.83196 -.62717 -1.03136
C 4.49416 -1.96156 -.64776
C 3.83406 -2.55305 -1.79272
C 2.96437 -3.59336 -1.61935
C 3.40040 3.39383 .92668
C 4.26029 2.31301 .88993
C 4.59157 1.70926 -.36554
C 3.11051 1.28988 2.81968
C 2.17777 2.41707 2.83359
C 2.39050 3.46147 1.93868
C 4.14600 1.28464 1.88587
C 2.50736 -2.41608 3.05190
C 1.26929 -2.41312 3.76190
C .79955 -1.23480 4.31840
C 3.22921 -1.23916 2.82761
C 2.71943 .00509 3.39339
C 1.53814 -.02743 4.13523
C 2.64076 -4.03979 -.28486
C 4.09194 -2.26463 .66734
C 3.17461 -3.38455 .84777
C 2.41206 -3.44913 2.02941
C 4.62364 .04648 1.28927
C 4.12220 -1.19780 1.66456
