100 

C 4.96798 .09788 2.30011
C 3.97656 -.45954 3.20899
C 5.41642 -.65567 1.22056
C 3.55118 -1.77526 3.05078
C 2.18671 -2.09872 3.28307
C 1.22724 -1.11810 3.60874
C -.49278 -2.69197 2.78207
C -1.80322 -2.98814 2.49564
C 5.30105 1.29889 -.26033
C 4.81759 2.08409 .85519
C 5.56172 -.04492 -.08703
C 4.63085 1.49055 2.10022
C 3.42749 1.76356 2.82666
C 3.82953 2.98597 .35350
C 2.68515 3.30309 1.07828
C 2.47367 2.65741 2.35921
C -.17759 -1.43414 3.41247
C 1.64096 .25021 3.67894
C 3.00685 .54732 3.50376
C .18144 3.43199 2.39031
C 1.11814 2.53243 2.88005
C -1.17013 -.41814 3.46807
C -.74479 .98736 3.44755
C .65521 1.29990 3.45939
C 3.16950 1.25561 -3.32666
C 4.24007 .85757 -2.49609
C 4.60925 1.75588 -1.45952
C 3.74961 2.81874 -1.08977
C .38616 4.07249 1.08806
C 1.52718 3.81493 .34669
C 1.39010 3.59818 -1.07249
C 2.54342 3.06810 -1.78501
C 2.34064 2.35927 -2.97689
C 4.47326 -.57468 -2.29127
C 5.09453 -.99836 -1.09063
C 2.33180 .28810 -4.01361
C 2.52930 -1.05637 -3.79576
C 3.59271 -1.49461 -2.91031
C .98828 .80308 -4.05705
C -2.52233 -.26002 -3.32809
C -3.72011 .32587 -2.93158
C -1.37541 .60105 -3.52783
C -.13215 -.01555 -3.92174
C .07648 -1.43082 -3.66370
C 1.38605 -1.90562 -3.58580
C -.11706 2.60728 -2.80195
C 1.00026 2.09736 -3.44119
C -3.44543 3.42981 -.28474
C -2.41536 3.37070 -1.24397
C -2.55783 2.42008 -2.32893
C -1.37832 1.92217 -3.00333
C -3.73852 1.67594 -2.42731
C .07629 3.47166 -1.63722
C -.87761 4.22733 .47539
C -1.07761 3.82435 -.85838
C 3.11489 -2.62709 -2.20001
C 3.55334 -2.91721 -.89938
C 4.66262 -2.17354 -.41794
C 4.89033 -1.99113 1.00693
C 4.00783 -2.54577 1.90360
C 1.74520 -2.87598 -2.59540
C .80079 -3.38338 -1.71512
C 1.21953 -3.69561 -.34500
C 2.59133 -3.47564 .04607
C 2.88395 -3.32962 1.42089
C -1.19864 -3.87435 .28167
C .20668 -3.78199 .65529
C .51526 -3.37239 1.98895
C 1.83465 -3.15378 2.34217
C -2.15926 -3.72512 1.29191
C -1.59385 -3.61175 -1.08017
C -.59437 -3.15312 -2.02034
C -2.93766 -3.33582 -1.34953
C -2.30754 -1.67041 -3.04132
C -.95289 -2.18211 -2.99284
C -3.29940 -2.37168 -2.36088
C -4.92666 -2.29054 -.67970
C -3.93590 -3.28940 -.31610
C -3.52607 -3.41592 1.00489
C -5.43477 -1.42941 .28985
C -5.39279 .44839 -1.29841
C -4.75884 -.42181 -2.26359
C -4.54396 -1.75693 -1.96933
C -5.68548 -.04027 -.02761
C -4.83335 2.03528 .98910
C -4.59965 2.57816 -.34680
C -4.78903 1.76378 -1.44723
C -5.30477 .74844 1.13821
C -1.85893 3.91484 1.48480
C -3.79824 2.51314 1.85572
C -3.11315 3.55223 1.11938
C -3.97303 -2.43860 1.98463
C -2.84863 -2.08759 2.81927
C -2.54707 -.75686 3.16808
C -4.88227 -1.47121 1.63598
C -4.68266 -.11655 2.10309
C -3.51281 .26969 2.79604
C -3.07278 1.64076 2.69510
C -1.69464 1.99006 3.04428
C -1.19812 3.22405 2.56977
