100 

C -2.83931 -.62899 -3.52842
C -2.00686 -1.73606 -3.40373
C -2.47885 -2.82365 -2.60270
C -.58541 -1.57852 -3.60962
C .29234 -2.62942 -3.11981
C 1.64882 -2.44081 -3.23204
C 2.19996 -1.19739 -3.67778
C 1.37984 -.07102 -3.81595
C -2.29286 .66628 -3.80064
C -1.29459 3.13686 -2.98579
C -.38786 2.17761 -3.45155
C -.91394 .87783 -3.87109
C -.04689 -.28363 -3.88137
C -.18145 -3.61447 -2.13611
C -1.54452 -3.72087 -1.95332
C 2.59501 -3.07231 -2.32370
C 2.13134 -3.74810 -1.16601
C .71639 -4.07595 -1.07012
C .16397 -4.45924 .18599
C 1.00176 -4.39299 1.35027
C 3.76986 -2.28354 -2.31778
C 4.49181 -2.12154 -1.12175
C 4.03902 -2.76321 .04452
C 2.92164 -3.63619 .02390
C 2.30129 -3.89941 1.27704
C 4.04630 .11059 -2.81719
C 3.53921 -1.12128 -3.17012
C 1.91461 1.22916 -3.43536
C 3.22909 1.28356 -2.97287
C 1.00069 2.31923 -3.08410
C -1.28218 -4.42427 .40302
C -2.12090 -4.12832 -.70248
C .45025 -3.95071 2.62322
C -.89533 -3.79215 2.77050
C -1.79231 -4.13211 1.68377
C 1.34551 -2.97744 3.18826
C -1.41075 -2.62417 3.43731
C -.58369 -1.59890 3.86965
C .87209 -1.77594 3.74899
C 4.22084 -1.83547 1.17111
C 3.33727 -1.86396 2.29186
C 2.52691 -3.00308 2.42009
C 2.94655 -.63661 2.92608
C 1.73833 -.63473 3.70692
C 1.16491 .61576 4.09206
C -2.96146 -3.31538 1.83127
C -3.76149 -2.97473 .71621
C -3.35867 -3.47030 -.55953
C -4.46479 -1.73934 .76775
C -2.71943 -2.35925 2.87861
C -.27995 .78353 4.19217
C -1.15698 -.25035 3.93661
C -2.44263 .05467 3.30707
C -3.22511 -1.05666 2.79456
C -4.19985 -.80919 1.79241
C -4.79076 -.99275 -.44824
C -4.31913 -1.44364 -1.71995
C -3.59173 -2.67976 -1.76756
C -4.00156 -.46888 -2.67863
C -4.78309 .37487 -.13237
C -4.42600 1.36535 -1.08633
C -4.15300 .92763 -2.39732
C -2.69434 2.83483 -2.79723
C -3.18484 1.62983 -3.20939
C -2.60015 3.73585 1.18673
C -3.49124 2.73399 .81096
C -3.82495 2.60345 -.60282
C -3.12247 3.39705 -1.53245
C -.58995 2.13085 3.85721
C -1.77470 2.44116 3.14729
C -2.71037 1.37772 2.83517
C -3.65234 1.58734 1.72159
C -4.38052 .50875 1.26000
C -1.74827 3.60456 2.35276
C -.55630 4.75505 .72160
C -1.88745 4.51851 .22307
C -2.08218 4.28392 -1.11921
C 1.80929 4.33173 .53260
C .56343 4.60521 -.10885
C .63321 2.79908 3.60263
C 1.88556 3.96108 1.87924
C .69247 3.84369 2.66243
C -.52166 4.28098 2.08547
C 4.72539 -.63564 .68875
C 4.32407 .61867 1.25440
C 3.48897 .62361 2.42094
C 2.97801 3.00132 2.01583
C 2.85737 1.86715 2.82531
C 1.71576 1.82371 3.70547
C 4.48930 1.56867 -1.03209
C 4.80780 .26562 -1.58441
C 4.97545 -.80278 -.73958
C 3.63561 2.92122 .75491
C 4.33653 1.76572 .36802
C -.92462 4.07785 -1.97828
C .37661 4.13674 -1.48739
C 1.38781 3.30924 -2.12907
C 2.88227 3.68187 -.18267
C 2.69801 3.20260 -1.49132
C 3.59789 2.21386 -1.92868
