100 

C 3.39310 -1.26201 2.55671
C 4.44373 -.62215 1.85902
C 5.05411 -1.20226 .66780
C 2.95122 -2.57182 2.09753
C 3.50350 -3.08281 .88486
C 4.55608 -2.38365 .16784
C -.41697 -2.53508 3.77416
C 1.01228 -2.38791 3.56396
C 1.69178 -3.07690 2.50569
C -1.13311 -3.39833 2.99665
C -.48660 -4.04759 1.86661
C .89686 -3.86885 1.58840
C -2.48076 -3.05772 2.60499
C -4.12103 -1.37239 2.16246
C -3.05238 -1.80372 2.95325
C 5.13855 -.22365 -1.58461
C 4.51460 -1.42955 -2.09264
C 5.41722 -.11904 -.22424
C 4.28584 -2.51102 -1.24886
C 3.08476 -3.27207 -1.38680
C 3.48571 -1.04593 -3.01330
C 2.31271 -1.77756 -3.15483
C 2.11646 -2.95875 -2.33773
C 1.31423 -4.00227 .23547
C 2.66591 -3.69489 -.05951
C -1.42615 -4.15661 .84065
C -1.05005 -4.05409 -.52865
C .34377 -3.99699 -.84109
C .76260 -3.47311 -2.13279
C -.21129 -3.04849 -3.01644
C 4.70388 2.22814 -.22078
C 4.35318 2.10645 -1.62221
C 5.12981 1.11630 .47624
C 4.52062 .89732 -2.27173
C 3.45772 .40276 -3.09961
C -1.62288 2.79839 -2.80737
C .76685 2.93709 -2.40902
C 2.25036 1.09722 -3.26497
C 2.10037 2.38597 -2.62388
C 3.16064 2.86739 -1.84648
C -.34447 2.31525 -3.08177
C -1.40297 .18131 -3.87381
C -.01954 -1.83516 -3.80881
C 1.15461 -1.08818 -3.69756
C 1.06839 .34215 -3.67104
C -.21635 .97399 -3.67210
C -1.26567 -1.21996 -3.99002
C 2.02359 3.54376 1.99073
C 3.21294 2.87344 1.67171
C 3.75389 3.13282 .38850
C 2.88864 3.60781 -.63785
C .52676 3.82863 -1.31328
C 1.60007 4.07400 -.35446
C 1.28483 4.25130 1.00996
C -1.86821 3.70548 -1.74112
C -.82782 4.12608 -.90869
C 3.47728 1.59762 2.31678
C 4.48872 .77986 1.74646
C 1.08975 2.99803 2.93830
C 1.23392 1.72305 3.44837
C 2.47553 .98744 3.14070
C 2.49360 -.44095 3.30569
C 1.35454 -1.07337 3.87573
C -.21118 3.54310 2.62911
C -2.52926 3.20388 2.17846
C -1.39777 2.84222 2.92227
C -1.30828 1.51515 3.52333
C .00749 1.01221 3.85001
C .13141 -.33534 4.16723
C -1.14292 4.34720 .50369
C -.09146 4.29519 1.43888
C -2.41527 3.97441 .98566
C -3.63790 2.29315 2.03080
C -3.60046 1.02030 2.61907
C -2.41682 .60639 3.38911
C -2.21755 -.80201 3.62942
C -.96145 -1.22445 4.08823
C -4.42832 .03954 2.02656
C -4.23589 2.51408 .75776
C -4.81511 1.44891 .03994
C -5.02426 .24473 .76053
C -3.77249 2.35631 -2.01153
C -3.21229 3.45695 -1.25021
C -3.47226 3.55692 .09433
C -4.62853 .10276 -2.03204
C -4.59196 1.37418 -1.40582
C -2.27340 -2.12924 -3.46082
C -3.47184 -1.64832 -3.01642
C -3.74083 -.21951 -3.08614
C -2.72101 .68713 -3.48465
C -2.81449 1.99317 -2.99503
C -3.34845 -3.08069 -1.00159
C -2.05493 -3.58654 -1.47135
C -1.60473 -3.16656 -2.72796
C -4.05307 -2.17903 -1.81755
C -5.07202 -1.04431 .08754
C -4.46614 -2.02968 .95037
C -3.62810 -3.04544 .43016
C -2.69080 -3.60176 1.31783
C -4.87350 -1.11896 -1.26503
