100 

C 2.50132 3.96280 .34646
C 2.56706 3.44008 1.65276
C 3.62047 2.53370 1.90429
C 3.52234 1.54248 2.95980
C 2.38921 1.49982 3.72962
C 1.28007 4.49995 -.17880
C -1.12066 4.51567 -.18339
C .07594 4.44751 .56609
C .06450 3.79734 1.87588
C 1.33332 3.36499 2.44388
C 1.31098 2.44998 3.50219
C 3.53070 -.92840 2.75855
C 2.30404 -.96864 3.54946
C 4.12730 .32010 2.51265
C 1.80815 .23419 4.06076
C .39860 .44802 4.23482
C -.53771 -.56624 4.01674
C -.06088 -1.87056 3.59807
C 1.35885 -2.06906 3.38772
C 1.76870 -3.17368 2.63142
C -2.36107 -2.41768 2.94252
C -.99363 -2.77328 2.98135
C -3.42359 1.49676 2.80786
C -2.20813 1.21612 3.47235
C -1.90366 -.16196 3.79266
C -2.82346 -1.16511 3.40943
C -2.33576 3.99501 .32984
C -2.38834 3.39158 1.59737
C -1.16859 3.23852 2.37201
C -1.13381 2.17894 3.35608
C .10451 1.81156 3.89407
C -3.48363 2.52388 1.83085
C 4.75218 .61689 1.23694
C 2.97364 -3.13253 1.81623
C 3.81019 -2.00648 1.81527
C 4.48224 -1.71324 .59836
C 4.87695 -.36048 .28752
C 1.45246 -4.52767 .78669
C 2.73989 -3.88590 .63593
C 3.14691 -3.38075 -.62458
C 4.06024 -2.31481 -.61293
C .68347 -4.78077 -.31893
C -.54656 -3.78203 2.05458
C .83168 -4.02580 1.98203
C -.74659 -4.61189 -.24676
C -1.37328 -4.12409 .90262
C 1.20930 2.42897 -3.67586
C 2.37106 2.45781 -2.85869
C 4.36546 1.95365 .83402
C 4.52017 -.08625 -1.09275
C 4.02748 1.16732 -1.50244
C 4.04340 2.24426 -.51149
C 3.11942 1.21434 -2.62042
C 4.03478 -1.28639 -1.64963
C 3.07744 -1.28940 -2.66994
C 2.65639 -.01936 -3.21439
C .71891 -1.17851 -4.23161
C 1.45966 .00196 -4.05211
C .75227 1.20319 -4.24305
C 1.13465 -4.35129 -1.63165
C 2.26816 -3.53688 -1.78275
C 2.25552 -2.50166 -2.82046
C 1.14856 -2.43194 -3.66135
C 3.21920 3.36436 -.72039
C 2.43999 3.50060 -1.91632
C .07071 3.23332 -3.39887
C .07711 4.13834 -2.30703
C 1.28916 4.29169 -1.59086
C -1.13064 4.32629 -1.60058
C -.67500 1.22569 -4.25982
C -1.10808 2.45959 -3.69800
C -.70648 -1.15743 -4.24122
C -1.41873 .04785 -4.07787
C -3.08417 -1.18253 -2.70507
C -2.62259 .07236 -3.26406
C -3.05782 1.31746 -2.68535
C -2.26632 2.52636 -2.90835
C -2.31163 3.58139 -1.93969
C -4.06411 -1.14965 -1.71753
C -4.56035 .07688 -1.19384
C -4.00034 1.30407 -1.58203
C -1.20426 -4.22457 -1.56279
C -.04879 -4.14118 -2.41505
C -.03131 -3.21876 -3.43677
C -2.30133 -3.37328 -1.72573
C -2.28414 -2.40369 -2.81326
C -1.17770 -2.38929 -3.66473
C -4.28360 -1.90451 1.73758
C -3.22622 -2.85253 1.86146
C -2.68442 -3.51651 .74860
C -4.74740 -1.56462 .47044
C -4.14338 -2.16250 -.67643
C -3.15370 -3.14893 -.56892
C -4.88271 .80156 1.11607
C -4.34563 .45337 2.42126
C -4.05228 -.85731 2.72185
C -5.03457 -.17424 .15002
C -3.08645 3.45442 -.77108
C -3.97909 2.36667 -.58533
C -4.33048 2.07534 .74532
