100 

C 4.67725 -1.57122 .70642
C 5.03686 -.20813 .56324
C 3.01553 -3.91565 .91771
C 3.17780 -3.09230 2.00332
C 4.05399 -1.93921 1.92278
C 1.73628 -4.53013 .68416
C 3.50764 -.93916 2.77134
C 3.74328 .42066 2.56019
C 4.66583 .75683 1.53028
C 4.57550 2.04327 .86072
C 3.76240 3.01054 1.36334
C 2.22402 -1.39321 3.25246
C -.17464 -1.06278 3.36411
C 1.16104 -.51968 3.43978
C 1.40295 .92086 3.32704
C 2.70557 1.37332 2.94284
C 2.86095 2.70589 2.46730
C -2.56412 -.64823 3.23547
C -1.28634 -.13870 3.40701
C .27229 1.82215 3.23222
C .74700 -3.21590 2.51063
C 2.02455 -2.73053 2.78746
C -3.08209 -3.83432 .75342
C -1.88300 -3.84705 1.49242
C -1.71184 -2.84843 2.53633
C -.38296 -2.40865 2.91764
C -2.78621 -2.00900 2.83340
C .60129 -4.21057 1.45633
C -.78076 -4.82683 -.47662
C -.70713 -4.44288 .87765
C 1.90586 4.06114 -1.63262
C 3.02257 3.62140 -.93591
C 3.08643 3.92862 .46922
C 1.94627 4.38431 1.14053
C -.45441 4.75242 1.05990
C .80381 4.85714 .42566
C .84162 4.77984 -.99317
C -1.08291 1.29282 3.24742
C .48308 3.15674 2.77305
C 1.77479 3.56406 2.35498
C -2.16215 2.08261 2.75084
C -1.89294 3.38575 2.24878
C -.61158 3.90822 2.25058
C 3.74271 2.44719 -1.44141
C 4.64930 1.81830 -.57873
C 5.03517 .44740 -.74850
C 3.14425 1.64893 -2.51049
C 3.60712 .34955 -2.70582
C 4.58901 -.25170 -1.84567
C -.03093 3.53420 -2.76074
C 1.31793 3.25428 -2.69529
C 1.82077 1.95443 -2.99942
C -2.30779 2.75373 -2.75700
C -.97485 2.51706 -3.12539
C .90437 .91647 -3.36334
C -1.65324 4.67309 .31181
C -1.60803 4.51780 -1.10202
C -.34579 4.52425 -1.72628
C -2.64285 3.73998 -1.71242
C 3.58578 -3.51781 -.36838
C 4.36817 -2.34902 -.49749
C 4.28890 -1.66706 -1.73963
C 3.21434 -1.93199 -2.62337
C 2.34143 -3.00366 -2.42448
C 2.66637 -3.90422 -1.37841
C .37820 -4.72469 -1.31358
C 1.61729 -4.67598 -.74305
C -.52921 1.17553 -3.36588
C 1.36863 -.44718 -3.38426
C 2.72744 -.67883 -3.16101
C .05397 -3.83759 -2.43116
C .95210 -2.85543 -2.85590
C -1.46617 .08318 -3.25216
C -.97352 -1.30020 -3.18152
C .43028 -1.56341 -3.25592
C -4.19285 2.06172 -1.67250
C -3.22537 1.70164 -2.68715
C -2.83034 .35759 -2.89177
C -4.86294 1.08667 -1.00759
C -4.73054 -.28356 -1.44049
C -3.68350 -.67344 -2.30607
C -3.20187 -2.02250 -2.22384
C -1.87203 -2.34024 -2.73796
C -1.33416 -3.59235 -2.39424
C -2.59171 3.89715 1.07718
C -3.60786 3.17027 .47958
C -3.70126 3.22522 -.96047
C -4.55910 -.70261 2.04105
C -3.64706 .15763 2.73070
C -3.41679 1.47491 2.33923
C -5.15234 -.24548 .87102
C -4.94513 1.10818 .45638
C -4.13640 1.99437 1.18442
C -4.63215 -2.38298 -.23566
C -4.14627 -2.91232 1.03747
C -4.03328 -2.05726 2.11760
C -5.10407 -1.09278 -.31946
C -1.87367 -4.36069 -1.28424
C -3.79491 -2.88984 -1.27971
C -3.02681 -3.95883 -.68771
