100 

C 3.36898 -3.25078 -.74469
C 3.52186 -2.39953 -1.87164
C 4.39965 -1.30727 -1.71900
C 4.22087 -.10697 -2.48882
C 3.25731 -.07276 -3.47705
C 2.17216 -4.03750 -.57295
C -.15145 -4.39970 -1.01330
C 1.10242 -3.97456 -1.49345
C 1.16339 -3.05829 -2.61889
C 2.42576 -2.32625 -2.84961
C 2.40323 -1.22011 -3.69353
C 3.56652 2.14355 -1.72192
C 2.55269 2.18164 -2.76628
C 4.40181 1.02086 -1.63765
C 2.47711 1.10276 -3.65469
C 1.21040 .69380 -4.22270
C -1.17176 .75448 -4.22899
C .03742 1.44210 -4.03131
C .06126 2.61612 -3.17524
C 1.35608 3.01427 -2.60341
C 1.36896 3.92568 -1.56239
C -1.36809 -3.92080 -1.59451
C -1.35618 -3.00064 -2.62773
C -.06168 -2.59736 -3.19699
C -.03846 -1.41621 -4.04316
C 1.17064 -.72682 -4.23635
C -1.21157 -.66639 -4.22696
C 2.39409 3.91759 -.53366
C 3.41118 2.96123 -.52213
C 3.91068 2.49273 .76121
C 1.78634 4.38641 .66971
C 2.17627 3.85797 1.88182
C 3.28717 2.96918 1.93285
C .38300 4.62678 .41200
C -.60501 4.26621 1.35462
C -1.91344 4.12333 .85405
C -2.40383 1.24321 -3.68070
C -2.42580 2.34234 -2.82796
C -1.16344 3.07229 -2.59222
C -1.10135 3.97902 -1.45904
C .15289 4.39953 -.97605
C -2.17005 4.03437 -.53661
C 4.59876 1.20269 .83585
C 4.87240 .52127 -.35694
C 3.03629 2.07964 3.05504
C 3.59872 .84188 3.08864
C 4.47822 .41632 2.02252
C 1.66106 2.25209 3.48552
C -1.41488 .13762 3.81523
C -2.80695 .25661 3.52737
C -.58853 1.30623 3.67520
C .83321 1.14223 3.80218
C 1.42219 -.17763 3.81161
C 2.81395 -.29417 3.52122
C -.22632 3.49599 2.53310
C 1.14953 3.37576 2.81514
C -2.88629 3.33615 1.54252
C -2.50696 2.51886 2.62191
C -1.12498 2.50914 3.07107
C -3.32952 1.39017 2.89712
C 4.38053 -.98914 1.95371
C 4.56702 -1.67265 .72551
C 4.87757 -.90824 -.41700
C 3.84826 -2.88849 .52913
C 3.33586 -1.42222 2.88065
C 1.13109 -2.54256 3.04742
C 2.51261 -2.54814 2.59668
C 2.89091 -3.35638 1.51069
C -1.14395 -3.40718 2.78760
C .23111 -3.52466 2.50258
C -.82605 -1.18203 3.79342
C .59536 -1.34475 3.66268
C -1.65480 -2.28877 3.46820
C .60849 -4.28518 1.31778
C 1.91677 -4.13763 .81735
C -.38045 -4.63827 .37329
C -3.28270 -2.99337 1.91119
C -2.17228 -3.88125 1.85124
C -1.78377 -4.39965 .63444
C -3.90797 -2.50760 .74388
C -3.40973 -2.96541 -.54412
C -2.39250 -3.92121 -.56472
C -4.47260 -.44137 2.02399
C -3.59287 -.87575 3.08556
C -3.03100 -2.11280 3.04049
C -4.86908 -.52627 -.35551
C -4.59552 -1.21813 .83069
C -3.84415 2.87625 .55777
C -4.87372 .90383 -.40349
C -4.56240 1.65844 .74480
C -4.37479 .96452 1.96688
C -3.25768 .09375 -3.47236
C -4.22011 .11956 -2.48270
C -4.39785 1.31335 -1.70298
C -3.52085 2.40687 -1.84786
C -3.36663 3.24831 -.71365
C -3.56600 -2.13767 -1.73665
C -2.55295 -2.16678 -2.78215
C -2.47780 -1.08017 -3.66104
C -4.40069 -1.01539 -1.64131
