100 

C 3.49821 1.16116 -3.06826
C 4.36767 .39919 -2.26837
C 4.22858 -1.01633 -2.34737
C 1.16773 -4.20165 -1.20011
C 1.45967 -3.31559 -2.24865
C 2.79489 -2.84274 -2.30407
C 3.11596 -1.60249 -2.98059
C 2.08910 -.81578 -3.55393
C 2.36911 .55299 -3.69662
C 4.86298 .98091 -1.01886
C 5.13381 .10593 .06714
C 3.11376 2.51678 -2.70163
C 3.61900 3.08895 -1.55727
C 4.49072 2.30164 -.68968
C 1.73327 2.70591 -3.03161
C .85225 3.41688 -2.20351
C -.97708 2.06695 -3.19218
C -2.31161 1.68020 -3.22498
C -1.71310 -.70904 -3.53500
C -.01124 1.10823 -3.70229
C 1.30284 1.50573 -3.71106
C -2.69438 .30527 -3.52096
C -.17347 -4.37045 -.75316
C -.32700 -.31935 -3.70370
C -2.03097 -1.98158 -2.96110
C -1.23106 -3.75104 -1.39395
C -.95664 -2.84824 -2.50614
C .38430 -2.55665 -2.86740
C .70281 -1.26773 -3.50761
C -3.33086 -2.18347 -2.44829
C 3.23213 3.74651 .61110
C 4.19911 2.66868 .65266
C 4.13727 1.68651 1.66833
C 4.72095 .44353 1.37402
C 2.35721 3.90745 1.64677
C -.57240 3.12207 -2.31029
C 1.38627 4.05081 -1.01886
C 2.76460 3.90243 -.74317
C 1.02657 4.38232 1.38599
C -1.48939 3.57814 -1.30470
C .48969 4.35811 .08016
C 2.28537 2.90008 2.70101
C 3.05564 1.74308 2.66177
C 2.47923 .52082 3.19906
C 3.18037 -.73033 2.94751
C 4.28606 -.76300 2.05759
C 2.50821 -1.93805 3.15123
C -1.11715 3.84124 2.35913
C .23567 3.93379 2.49470
C .94888 2.88774 3.19004
C -1.82516 2.75645 2.98490
C -1.15001 1.63042 3.46658
C .30920 1.69284 3.55354
C 1.09694 .48847 3.59033
C .38845 -.78485 3.67484
C 1.12160 -1.95303 3.52920
C -2.99904 3.43877 1.10004
C -1.72558 4.10530 1.08324
C -3.26755 2.25596 -2.37383
C -2.85207 3.10113 -1.31866
C -.94491 4.16892 -.07760
C -3.61872 3.02010 -.08190
C -4.63557 2.03713 .05442
C 2.77433 -3.08989 2.34728
C 3.65143 -3.00343 1.24937
C 4.49669 -1.86069 1.20043
C 5.02006 -1.33907 -.05887
C 4.60529 -1.88777 -1.24321
C 1.55314 -3.86892 2.28459
C 1.21129 -4.51740 1.10698
C 2.04296 -4.33068 -.07024
C 3.25259 -3.62556 -.01640
C 3.68725 -3.01722 -1.23316
C .54173 -3.16847 3.00936
C -1.06673 -.86070 3.50754
C -3.20152 .28649 2.93663
C -1.84183 .34174 3.41860
C -3.76548 -.96902 2.62135
C -2.97338 -2.12582 2.62978
C -1.64039 -2.09953 3.06224
C -.79740 -3.20292 2.63539
C -1.16704 -3.96508 1.46343
C -.15314 -4.54133 .69329
C -5.25168 -.04282 .90086
C -4.74241 1.27174 1.24505
C -3.80113 1.44824 2.29419
C -3.07042 2.63626 2.27764
C -4.78958 -1.13758 1.59442
C -4.36140 1.30365 -2.24923
C -5.43163 -.10007 -.53844
C -5.04764 1.20169 -1.06081
C -4.51258 -2.37345 .89187
C -4.61488 -2.41322 -.50140
C -5.09618 -1.25589 -1.22999
C -4.31381 -1.15624 -2.45406
C -3.98254 .09821 -2.96969
C -3.39923 -2.99026 1.52955
C -2.43082 -3.68837 .80204
C -2.47516 -3.63341 -.64013
C -3.54532 -2.98904 -1.25254
