100 

C 2.76644 3.80777 1.68882
C 3.26567 2.70730 2.50010
C 3.17979 3.91632 .35495
C 4.24176 1.87700 2.01687
C 4.18857 .46841 2.32189
C .86404 4.42191 -.34270
C .44989 4.35271 1.03355
C 2.20778 4.15509 -.65125
C 1.39655 3.98278 2.00508
C -1.30402 3.26555 2.46764
C -.95173 4.13246 1.34999
C -1.88803 4.32797 .33556
C -2.59584 2.77623 2.54801
C -3.56327 3.00346 1.50536
C -3.19226 3.72338 .38948
C 3.65755 -2.22065 1.83080
C 2.78933 -1.52194 2.68283
C 3.06124 -.12318 2.93540
C 1.97959 .74204 3.37852
C 2.15190 2.13612 3.22350
C 1.04219 2.97740 3.00666
C .65054 .22665 3.55744
C -.46292 1.13481 3.53406
C -.25741 2.50700 3.14317
C -1.47114 4.34871 -1.05322
C -.12314 4.23017 -1.39715
C .22742 3.44684 -2.57083
C -2.51263 3.72782 -1.82278
C -2.17976 3.00444 -2.94262
C -.80353 2.86899 -3.31172
C -3.54110 3.23699 -.91464
C 1.54341 2.84096 -2.66537
C 2.54424 3.32735 -1.80620
C -.64354 1.56693 -3.89577
C .54604 .87257 -3.82720
C 1.71823 1.54923 -3.26222
C 2.88468 .77934 -2.93512
C 2.86757 -.62206 -3.23973
C -1.92994 .88935 -3.83840
C -3.14743 -1.01017 -3.02697
C -2.00244 -.51171 -3.67018
C -.78982 -1.29668 -3.66570
C .47923 -.59358 -3.88421
C 1.65527 -1.27956 -3.69079
C -3.84336 1.24092 -2.31613
C -2.85822 1.75034 -3.21087
C -4.72430 -.96739 1.21193
C -4.82325 -.19254 .03384
C -4.56107 -.86289 -1.18399
C -4.04247 -.14432 -2.33597
C -4.15901 1.98730 -1.08838
C -4.36397 1.82520 1.36217
C -4.61661 1.26164 .09881
C 3.84038 1.24677 -1.97685
C 3.68996 2.56708 -1.49552
C 4.14219 2.96559 -.17787
C 4.58382 .29042 -1.15485
C 4.99841 .70132 .13233
C 4.71616 2.02443 .64248
C 3.60984 -1.54486 -2.51227
C 4.41362 -1.12823 -1.39208
C 4.52346 -2.02904 -.31616
C 4.61685 -1.53241 1.01933
C 4.86756 -.19929 1.24419
C 2.87856 -2.80960 -2.49986
C 1.74846 -4.40916 -1.07789
C 2.90339 -3.64627 -1.36117
C 3.70742 -3.23297 -.25398
C -3.10753 -2.25778 -2.33216
C -1.96452 -3.03590 -2.29787
C -.79435 -2.59093 -3.06148
C .46954 -3.27266 -2.84492
C 1.67301 -2.62780 -3.21717
C .56025 -4.26697 -1.85310
C -.05886 -4.91817 .28751
C 1.35965 -4.67978 .28601
C 1.95951 -3.96143 1.33221
C 3.20467 -3.34738 1.05403
C -.79886 -4.61942 1.41098
C -2.67286 -3.83850 .00513
C -1.80828 -3.95808 -1.16040
C -.57332 -4.58225 -1.00328
C -2.15364 -4.20450 1.26455
C -3.47813 -2.51006 2.41188
C -4.23006 -2.30379 1.18530
C -3.78425 -2.89064 -.01889
C -4.02506 -2.16809 -1.20591
C -2.44866 -3.39900 2.43371
C -4.04970 .98587 2.50558
C -3.33607 -1.24802 3.08718
C -4.26340 -.36415 2.45293
C 1.12865 -3.37506 2.38248
C 1.45869 -2.07516 2.94665
C .41599 -1.22157 3.42902
C -.18690 -3.82770 2.47249
C -1.19880 -3.03147 3.06393
C -.94243 -1.71215 3.47392
C -2.07044 -.79251 3.52040
C -1.82645 .62670 3.53067
C -2.86417 1.48643 3.13702
