100 

C 4.10256 -2.88621 -.24050
C 4.77704 -1.60203 -.36487
C 3.62324 -3.29866 1.00491
C 4.99979 -.81805 .75362
C 4.90071 .60711 .64937
C 4.32481 -.97634 -1.57419
C 4.14921 .40455 -1.68336
C 4.50293 1.24128 -.54102
C 3.23053 3.11021 -1.53130
C 3.94230 2.58945 -.43889
C 3.62657 3.11836 .84035
C 1.59372 -4.22416 -.05475
C 2.06571 -3.75583 -1.33663
C 2.35688 -3.93688 1.08674
C 3.28621 -3.07047 -1.39166
C 1.29064 -2.36630 -3.28556
C 1.11097 -3.51369 -2.40995
C -.16380 -4.06758 -2.27909
C .17673 -1.86873 -3.95758
C -1.12930 -2.41335 -3.76894
C -1.30030 -3.51607 -2.95747
C 3.43681 -1.89307 -2.23975
C 2.86266 2.25423 -2.65722
C 3.19052 .88043 -2.67112
C 2.29894 -.02436 -3.33233
C 2.42088 -1.45915 -3.07093
C 1.05944 .48179 -3.86858
C .02107 -.44556 -4.18032
C -.62891 -4.58436 -1.00158
C .17445 -4.48990 .13744
C -.45332 -4.16360 1.40694
C -2.04332 -4.37069 -.94077
C -2.64642 -4.15525 .27865
C -1.84035 -4.06230 1.45615
C -4.64935 -1.11392 -.38296
C -3.72482 -3.20449 .38901
C -4.05254 -2.37123 -.69158
C -3.32634 -2.49867 -1.95217
C -3.10436 -1.30501 -2.77439
C -2.44468 -3.58348 -2.09077
C -2.05885 -1.32333 -3.68907
C .31615 -3.43828 2.41788
C 1.69338 -3.44708 2.29294
C -2.49568 -3.14722 2.36504
C -1.74642 -2.30434 3.20188
C -.29645 -2.38921 3.20288
C -2.35843 -1.10132 3.61626
C -3.68868 -2.67314 1.73101
C -4.79228 -.66125 .93530
C -4.20256 -1.39512 2.01948
C -3.57829 -.65826 3.06338
C -1.55443 .05272 3.91865
C -.17603 .03433 3.83983
C .48534 -1.25157 3.59433
C 1.90870 -1.26316 3.39508
C 2.49791 -2.42901 2.87233
C 3.74262 -2.40348 2.14792
C 2.65462 -.01425 3.30798
C 3.92122 -.04097 2.69579
C 4.42911 -1.21925 2.03889
C 4.40655 1.08646 1.93388
C 3.75992 2.28353 2.01417
C .52063 1.29766 3.56473
C 1.93816 1.25888 3.35724
C 2.55622 2.39177 2.79640
C -2.32763 1.22169 3.59038
C -2.40762 3.25380 2.30973
C -1.68241 2.40563 3.15636
C -.22956 2.45522 3.15529
C .41106 3.48685 2.36823
C 1.79105 3.44237 2.23346
C -4.76239 .79744 .92014
C -4.15771 1.53260 1.98362
C -3.55712 .80036 3.04876
C -3.60737 2.79270 1.67048
C -2.52251 4.23263 .21035
C -1.73183 4.15165 1.39963
C -.34347 4.25025 1.36734
C -1.90123 4.42505 -1.00168
C -.50812 4.73575 -1.03703
C .29358 4.63763 .11663
C -4.58373 1.21496 -.41115
C -3.92533 2.42510 -.74241
C -3.61217 3.29044 .32321
C -1.32499 -.11689 -4.01636
C -1.72466 1.16481 -3.53760
C -2.90004 1.25563 -2.71847
C -3.59985 .01188 -2.33287
C -4.44325 .04360 -1.23638
C -2.21209 3.52996 -2.11450
C -3.12130 2.45804 -1.96142
C 1.29478 3.92792 -2.46761
C 1.66100 2.73258 -3.19844
C .68131 1.84138 -3.70032
C -.01998 4.25310 -2.31437
C -1.04846 3.40869 -2.90180
C -.72969 2.19262 -3.53849
C 2.46468 3.90775 1.02310
C 1.72093 4.38829 -.06697
C 2.21375 4.08304 -1.36264
