100 

C 3.40965 -2.71906 -1.43507
C 4.46609 -2.11598 -.73668
C 5.06320 -.89215 -1.17536
C 2.82085 -2.01478 -2.54966
C 3.37542 -.79521 -2.92874
C 4.52693 -.24284 -2.28312
C -.52293 -3.67094 -2.42975
C .88537 -3.46579 -2.47404
C 1.42965 -2.27036 -2.90594
C -1.41934 -2.62582 -2.69507
C -.88243 -1.34156 -3.13006
C .53196 -1.18552 -3.27774
C 1.09707 .13345 -3.42700
C 2.51203 .28732 -3.33951
C -3.13526 -.31125 -2.67536
C -1.73701 -.16852 -3.11354
C -1.15550 1.13447 -3.20727
C -3.87877 .84164 -2.39810
C -3.60919 -1.55794 -2.10865
C -2.74482 -2.72183 -2.11522
C -4.67229 -1.52352 -1.17948
C 5.29333 1.25143 .00479
C 4.74545 1.92410 -1.16043
C 5.44940 -.12583 -.00090
C 4.36799 1.19351 -2.27114
C 3.10888 1.49223 -2.92558
C 3.88337 2.99329 -.69567
C 2.71462 3.37887 -1.40572
C 2.29969 2.58148 -2.53833
C .28442 1.28938 -3.30570
C .91886 2.53943 -2.90784
C -3.27424 2.14298 -2.43279
C -1.95297 2.30537 -2.85624
C -1.31932 3.49809 -2.44904
C .11608 3.59902 -2.44824
C 4.52572 -.26050 2.28003
C 4.36714 1.17587 2.28017
C 5.06264 -.90183 1.16723
C 4.74519 1.91462 1.17545
C 3.88334 2.98756 .71937
C 3.10802 1.46933 2.93716
C 2.29910 2.56184 2.55889
C 2.71467 3.36789 1.43270
C .51487 4.41440 -1.37130
C 1.73916 4.14940 -.70322
C 1.73924 4.14395 .73661
C .51469 4.40384 1.40665
C 3.40868 -2.72996 1.41149
C 2.81953 -2.03436 2.53154
C 4.46583 -2.12243 .71829
C 3.37417 -.81826 2.92090
C 2.51088 .26098 3.34078
C .11548 3.58021 2.47680
C .91803 2.51702 2.92767
C .28342 1.26399 3.31486
C 1.09581 .10710 3.42654
C .53060 -1.21026 3.26632
C 1.42831 -2.29206 2.88577
C .88454 -3.48399 2.44488
C 1.50207 -4.24740 1.36955
C 2.61635 -3.71854 .70418
C 2.61692 -3.71328 -.73543
C .46692 -4.94015 .68021
C .46718 -4.93486 -.71989
C 1.50285 -4.23731 -1.40456
C -.77803 -4.68465 1.39005
C -.77784 -4.67398 -1.42749
C -1.97448 -4.64656 -.75070
C -1.97456 -4.65213 .71361
C -1.15663 1.11031 3.21455
C -1.73809 -.19158 3.11019
C -.88354 -1.36466 3.11740
C -1.41986 -2.64554 2.67303
C -.52318 -3.68848 2.39962
C -3.00671 -3.76189 1.15888
C -2.74528 -2.73749 2.09302
C -3.00648 -3.75287 -1.18893
C -3.79225 -3.45429 -.01386
C -4.67295 -1.53247 1.16666
C -4.60480 -2.36831 -.00965
C -1.32030 3.47965 2.47610
C -1.95423 2.28388 2.87300
C -3.27576 2.12486 2.44784
C -3.88015 .82385 2.40288
C -3.13626 -.33071 2.67119
C -3.60973 -1.57345 2.09545
C -.68054 4.82649 -.66913
C -.68079 4.82159 .70732
C -3.01449 3.87877 .74630
C -1.82565 4.26276 1.41542
C -3.82441 2.93354 1.40679
C -4.80747 2.13619 -.68542
C -3.82308 2.94366 -1.38554
C -3.01430 3.88411 -.71727
C -1.82500 4.27298 -1.38240
C -4.80866 2.13115 .69983
C -5.23319 -.29100 .72691
C -5.23265 -.28547 -.73072
C -4.91251 .87752 -1.40010
C -4.91375 .86708 1.40504
