100 

C 5.09136 .75058 -2.28320
C 4.31377 -.24089 -2.99740
C 5.83374 .38106 -1.16500
C 4.31333 -1.55740 -2.57674
C 3.06043 -2.28738 -2.55341
C -.62707 -.35628 -3.41168
C -.62754 -1.69806 -2.98364
C 1.86015 -1.73367 -3.01519
C 1.86056 -.34851 -3.45742
C 3.06141 .36900 -3.40186
C .62698 -3.13357 -1.41668
C .62746 -2.29933 -2.55141
C -3.06213 -3.35620 -.72790
C -1.86093 -3.17993 -1.42491
C -1.86032 -2.31831 -2.59627
C -3.06052 -1.70394 -2.97426
C 5.09098 2.40684 .01978
C 4.31408 2.78002 -1.14428
C 5.83350 1.22921 .01431
C 4.31423 1.97306 -2.26629
C 3.06158 1.72544 -2.95391
C -.62741 3.13890 -1.38521
C -.62710 2.31695 -2.52881
C 1.86110 2.33616 -2.57105
C 1.86080 3.18492 -1.39052
C 3.06133 3.35321 -.69008
C .62842 .38276 -3.40746
C .62846 1.72010 -2.96602
C -3.06004 -.34304 -3.40804
C -1.85936 .37524 -3.45531
C -1.85961 1.75589 -2.99908
C -3.06044 2.30449 -2.53236
C 5.08968 .72802 2.30658
C 4.31224 1.95004 2.30105
C 5.83293 .36963 1.18535
C 4.31293 2.76807 1.18709
C 3.06049 3.34553 .73836
C -.62922 2.28790 2.56422
C -.62865 3.12244 1.42973
C 1.85949 3.16928 1.43641
C 1.85868 2.30807 2.60795
C 3.05913 1.69455 2.98554
C .62796 3.36310 -.68039
C .62722 3.35494 .72789
C -3.06084 3.13761 -1.37217
C -1.86034 3.40521 -.70334
C -1.86103 3.39660 .75068
C -3.06195 3.12130 1.41617
C 5.08976 -1.96563 1.41708
C 4.31185 -1.58316 2.57744
C 5.83286 -1.00974 .72984
C 4.31169 -.27080 3.01070
C 3.05867 .33385 3.42020
C -.63022 -1.73153 2.97882
C -.63019 -.39416 3.42037
C 1.85801 -.38509 3.46822
C 1.85807 -1.76579 3.01244
C 3.05908 -2.31386 2.54605
C .62596 1.68719 2.99599
C .62546 .34559 3.42445
C -3.06243 2.27488 2.56670
C -1.86205 1.72150 3.02801
C -1.86272 .33621 3.46997
C -3.06356 -.38189 3.41386
C 5.09065 -1.95168 -1.41967
C 4.31274 -2.93719 -.69741
C 5.83340 -1.00264 -.72276
C 4.31232 -2.94418 .68464
C 3.05929 -3.14762 1.38620
C -.62892 -3.36590 -.71556
C -.62955 -3.37392 .69271
C 1.85881 -3.41566 .71707
C 1.85924 -3.40767 -.73693
C 3.06022 -3.13299 -1.40220
C .62557 -2.32750 2.54187
C .62582 -3.14928 1.39820
C -3.06370 -1.73793 2.96526
C -1.86290 -2.34779 2.58278
C -1.86268 -3.19607 1.40181
C -3.06305 -3.36447 .70045
C -5.09353 -.76351 2.29417
C -4.31635 -1.98572 2.27675
C -4.31611 -2.79176 1.15414
C -5.83576 -.39300 1.17618
C -5.09259 1.93954 1.43307
C -4.31552 1.54440 2.58976
C -4.31616 .22760 3.00945
C -5.83531 .99113 .73526
C -5.09136 1.95609 -1.40354
C -4.31408 2.93397 -.67037
C -4.31474 2.92591 .71166
C -5.83460 .99958 -.71731
C -5.09121 -.73691 -2.29546
C -4.31313 .26221 -2.99852
C -4.31341 1.57429 -2.56425
C -5.83463 -.37938 -1.17409
C -5.09279 -2.41763 -.01006
C -4.31462 -2.77815 -1.17722
C -4.31397 -1.95932 -2.29061
C -5.83537 -1.24004 -.00385
