100 

C 2.09788 -2.23611 -3.33695
C 3.15007 -1.35735 -3.03074
C 4.06824 -1.80112 -2.05949
C 4.93074 -.87675 -1.37009
C 4.85280 .46669 -1.68119
C 3.84420 .92742 -2.62152
C 2.93200 .07006 -3.23320
C .87490 -1.75763 -3.94956
C .55320 -.38596 -3.95517
C 5.09469 -.35262 1.01617
C 5.04379 1.05721 .69317
C 5.02745 -1.30000 .01061
C 4.95831 1.45590 -.63008
C 4.09453 2.55499 -.97198
C 3.38783 3.26292 .01130
C 2.29441 4.03089 -.45155
C -1.80707 -1.03344 -3.90729
C -.84211 -.00860 -3.91920
C 1.58703 .57089 -3.56997
C -.22936 2.26628 -3.14529
C 1.20214 1.88520 -3.20426
C 2.17632 2.72837 -2.52678
C 3.44704 2.23734 -2.22315
C 1.73719 3.80894 -1.71750
C 2.53494 -1.62835 3.38403
C 3.56322 -1.72028 2.41244
C 4.33660 -.56289 2.22229
C 3.83641 .71719 2.65641
C 1.75884 1.94910 3.13358
C 2.63509 .82147 3.35937
C 2.08847 -.38958 3.86290
C -.53942 2.78758 3.17430
C .35249 1.81843 3.55794
C 3.35065 2.75897 1.38059
C 4.21073 1.70631 1.68890
C 1.24207 4.46314 .43967
C 1.12970 3.89950 1.72066
C 2.13471 2.94108 2.18297
C -.17289 3.85094 2.28340
C 3.40406 -2.67499 1.31445
C 4.17461 -2.46049 .17390
C 1.42241 -2.55559 3.38755
C 1.23679 -3.46428 2.31407
C 2.16061 -3.45508 1.19075
C -.06802 -3.94176 2.12646
C .31499 -1.89831 3.95846
C -1.00701 -2.25689 3.64187
C -1.17224 -3.42232 2.86637
C -3.41210 -2.72542 2.18282
C -2.36234 -3.60930 2.06461
C -.20856 .51306 3.96388
C .67880 -.51684 4.17173
C -1.95312 2.51028 2.98812
C -2.49131 1.18765 3.17050
C -1.62804 .17949 3.70072
C -2.01747 -1.20309 3.59633
C -3.24916 -1.51294 2.98700
C -.53957 -4.31805 .82356
C .26768 -4.20446 -.28857
C 1.68127 -3.84736 -.09537
C 2.45483 -3.49048 -1.26820
C 3.66788 -2.81258 -1.12323
C 1.79237 -3.33299 -2.51101
C -1.83819 -3.68036 -1.62349
C -.40672 -3.99523 -1.58141
C .38255 -3.62250 -2.66437
C -2.32881 -2.95573 -2.71152
C -1.44411 -2.39121 -3.68655
C -.11200 -2.74500 -3.68495
C -1.97682 -4.08925 .77889
C -3.79361 -2.80924 -.25582
C -2.62188 -3.66342 -.38521
C -4.84220 -.72736 -1.12072
C -4.17776 -1.94785 -1.37153
C -3.42849 -2.02119 -2.56050
C -4.19409 -2.40795 1.03687
C -4.70900 1.58790 -1.02727
C -4.55691 .43428 -1.89265
C -3.55055 .40955 -2.88509
C -3.10843 -.85465 -3.29225
C -3.95620 2.71385 -1.27836
C -4.74805 -1.08871 1.27984
C -4.89759 1.14075 .31336
C -5.10869 -.28835 .23637
C -2.43245 3.37157 2.01563
C -3.44796 3.47822 -.19402
C -3.49338 2.97069 1.12090
C -4.16874 1.72476 1.37587
C -3.68184 .84716 2.44647
C -4.06534 -.50857 2.42289
C .07676 4.68207 -.35931
C -2.25480 4.16172 -.68836
C -1.21919 4.56798 .18753
C -1.32644 4.21454 1.56139
C -2.63800 1.54638 -3.04222
C -1.23656 1.32760 -3.47266
C -2.95392 2.69725 -2.33352
C -1.94363 3.63812 -1.96685
C -.60612 3.47430 -2.39922
C .35408 4.18611 -1.67200
