100 

C 1.20635 4.25509 -1.86143
C .54838 5.04019 -.74594
C 2.49297 2.29793 -3.75787
C 3.29939 2.92744 -2.65075
C 2.70668 4.04581 -1.80531
C 2.60954 .80055 -3.95113
C 3.46061 -.03851 -3.09217
C 3.36538 -1.53734 -3.26264
C 3.34456 3.93498 -.42327
C 2.54133 4.30758 .80375
C 1.19921 4.98741 .63396
C 2.86831 3.64244 2.12197
C 4.23755 2.69513 -.39398
C 4.18882 .30287 .68119
C 4.18747 1.81120 .82981
C 3.82069 2.44846 2.15363
C 4.16927 -2.04725 1.78374
C 4.01079 -.54212 1.87872
C 4.01868 .53883 -1.86356
C 4.17781 2.04474 -1.76836
C 3.82646 -2.45134 -2.13829
C 4.18844 -1.81380 -.81367
C 4.18987 -.30592 -.66543
C 4.23370 -2.69767 .40989
C 1.76275 3.41943 3.15086
C .33810 3.71098 2.72765
C .10855 4.78776 1.68563
C -.75672 2.71448 3.02684
C -2.16073 2.96536 2.53147
C -3.30810 2.08758 2.99891
C 2.07903 2.11940 3.88544
C 1.33821 -.29273 4.43877
C .96316 1.15637 4.23834
C -.45307 1.46392 3.80960
C -1.50737 .38883 3.92177
C -2.95162 .71950 3.60489
C 3.45033 .03497 3.10667
C 3.35578 1.53468 3.27762
C 2.59531 -.80476 3.96342
C -2.38160 3.95587 1.41224
C -1.23295 4.83009 .95645
C -4.41867 1.81108 1.98023
C -4.52152 2.62311 .71053
C -3.53067 3.74950 .44815
C -4.57215 .30835 1.88174
C -4.86681 -.38056 .61677
C -4.78247 -1.89617 .59425
C .31431 -1.38477 4.43349
C -1.07745 -1.04333 3.94305
C -1.84626 -2.04638 3.11534
C -3.27252 -1.73702 2.71877
C -3.75797 -.31882 2.88543
C -3.97446 -2.60118 1.68988
C -3.21034 3.75487 -1.04625
C -1.79291 4.07744 -1.47118
C -.96300 4.94190 -.54386
C -1.09379 3.18510 -2.46808
C .36186 3.41778 -2.79458
C 1.01820 2.66712 -3.94069
C -3.96717 2.60292 -1.70147
C -3.74746 .31911 -2.89501
C -3.26259 1.73813 -2.72843
C -1.83377 2.04484 -3.11797
C -1.06345 1.04161 -3.94389
C .32905 1.38404 -4.43492
C -4.86588 .38297 -.63100
C -4.78041 1.89955 -.60868
C -4.56656 -.30692 -1.89497
C -2.93892 -.71806 -3.60777
C -1.49516 -.39008 -3.92543
C -.44189 -1.46630 -3.81114
C .97695 -1.15854 -4.23176
C 1.35393 .28915 -4.43333
C 2.09099 -2.12204 -3.87627
C -3.30083 -2.08639 -3.00839
C -2.15551 -2.96691 -2.53886
C -.74936 -2.71755 -3.03015
C .11098 -4.78938 -1.68388
C .34494 -3.71345 -2.72523
C 1.77133 -3.42181 -3.14274
C -3.53199 -3.74743 -.45883
C -4.52164 -2.62077 -.72369
C -4.41312 -1.80856 -1.99216
C -1.23328 -4.83003 -.95952
C -2.38019 -3.95614 -1.41927
C 1.00316 -2.66945 3.94657
C .34985 -3.42076 2.79866
C -1.10476 -3.18741 2.46744
C -.96850 -4.94231 .54177
C -1.80078 -4.07786 1.46634
C -3.21619 -3.75361 1.03667
C 2.69785 -4.04809 1.81605
C 3.28862 -2.93032 2.66380
C 2.47814 -2.30079 3.76806
C .54242 -5.04168 .74929
C 1.19737 -4.25770 1.86724
C 2.87310 -3.64504 -2.11028
C 1.19812 -4.98950 -.62824
C 2.54111 -4.31008 -.79349
C 3.34014 -3.93731 .43602
