100 

C 2.25023 -3.78251 -1.38939
C 2.80565 -2.84617 -2.28659
C 3.96391 -2.17134 -1.84379
C 4.30757 -.85555 -2.34892
C 3.52192 -.28028 -3.30717
C .86521 -4.17269 -1.49090
C -1.36178 -3.72321 -2.20357
C .01879 -3.60927 -2.45739
C .50727 -2.50793 -3.29228
C 1.91680 -2.19534 -3.25598
C 2.33117 -.96014 -3.77671
C 2.97265 3.08578 -1.86880
C 3.69525 1.92587 -2.14713
C 3.24261 1.13969 -3.24793
C 1.95931 1.34287 -3.79413
C -2.19931 .74546 -3.71670
C -.85527 .98056 -3.86236
C -.30471 2.25406 -3.36378
C 1.13647 2.41116 -3.36565
C 1.72983 3.36061 -2.51912
C -2.31124 -2.83118 -2.81603
C -1.86775 -1.72720 -3.53991
C -.43388 -1.52736 -3.75917
C .02216 -.19086 -4.05924
C 1.38859 .03903 -4.11204
C -2.73833 -.59516 -3.58823
C 4.43481 1.28293 -1.06156
C 4.82108 -.05732 -1.24599
C 4.96792 -.94818 -.13978
C 4.27438 1.77859 .29986
C 4.53605 .90918 1.36149
C 4.84956 -.47102 1.14398
C 1.71565 4.40806 -.44521
C 2.91382 3.64585 -.52832
C 3.41225 2.93012 .57167
C 1.07505 4.54398 .77253
C 1.55881 3.83089 1.90421
C 2.69052 3.01270 1.82892
C -.36775 4.56151 .81598
C -2.45956 3.93273 -.15629
C -1.12930 4.36559 -.34857
C -3.05544 1.64487 -2.99462
C -2.51581 2.78738 -2.35131
C -1.10257 3.10857 -2.55063
C -.45616 4.03004 -1.60752
C .92866 4.15860 -1.64230
C -3.18315 3.23581 -1.19995
C 2.58567 -.67469 3.89494
C 4.18153 -1.26582 2.16232
C 3.68542 -.33843 3.13403
C 2.79721 1.94055 2.80999
C 3.80221 .99272 2.61475
C 1.60599 .31743 4.20291
C 1.64575 1.59003 3.63743
C 1.90584 -1.91289 3.65194
C 2.24358 -2.74056 2.58588
C 3.45889 -2.42423 1.82915
C 3.61453 -2.94649 .47352
C 4.37289 -2.23031 -.47883
C 2.61699 -3.80303 -.02733
C .52596 -1.72099 4.04800
C -1.81258 -1.94222 3.60469
C -.53090 -2.47360 3.46122
C -.24516 -3.37307 2.36767
C 1.16510 -3.54883 1.97369
C 1.43193 -4.12990 .74850
C .40193 3.45680 2.70622
C .37121 2.30538 3.46679
C -.92064 1.63263 3.67102
C -.90034 .27964 4.17596
C .34634 -.37302 4.39142
C -1.99977 -.55277 3.96968
C -2.87649 -2.33077 2.74383
C -2.64841 -3.15997 1.64494
C -1.30612 -3.71822 1.46461
C -.96451 -4.25358 .15895
C .38390 -4.43635 -.17590
C -1.85230 -4.08415 -.92772
C -3.81332 -1.21829 2.69969
C -4.62043 -1.04249 1.61889
C -4.53375 -1.96329 .50621
C -3.56158 -3.01436 .49847
C -3.14604 -3.46624 -.75449
C -.77177 3.94476 2.04513
C -1.99882 3.28546 2.16483
C -2.09749 2.10415 3.00253
C -4.17274 1.42506 1.67931
C -3.24435 1.21401 2.80521
C -3.18166 -.07251 3.33954
C -4.84600 .29289 1.10405
C -3.98130 2.52305 .84823
C -2.90983 3.46216 1.08875
C -4.10032 .88590 -2.43082
C -5.03323 .17710 -.28078
C -4.63156 1.23101 -1.15914
C -4.18186 2.43243 -.57149
C -3.45447 -2.74144 -1.94838
C -4.83613 -1.23291 -.65767
C -4.23812 -1.57461 -1.90275
C -3.89731 -.51670 -2.80691
