100 

C -4.51779 1.77832 1.31587
C -4.12324 .94004 2.40405
C -4.27061 -.46543 2.26268
C -3.08117 1.40471 3.23913
C -2.36962 2.60887 2.92532
C -2.65747 3.35212 1.78513
C -3.82604 2.97074 1.04203
C -2.15056 .49718 3.82709
C -2.19920 -.87732 3.54732
C -3.32677 -1.34763 2.83051
C -3.21727 -2.49452 1.97670
C -.91966 -2.85194 2.74608
C -2.04931 -3.22081 1.87778
C .28299 -.97302 3.87562
C -.96629 -1.64657 3.50303
C 1.47625 -1.65035 3.70866
C 1.52737 -2.91958 3.03703
C .36384 -3.48470 2.50346
C .52756 -4.31981 1.36904
C -1.74076 4.35612 -.24841
C -1.55375 4.03793 1.09718
C .35046 .47650 3.92627
C .09243 3.07597 2.73896
C -1.00498 2.44923 3.38069
C -.87779 1.18051 3.93955
C -.56762 -4.54819 .44312
C -1.82219 -3.98275 .63216
C -2.65452 -3.72884 -.54540
C .00761 -4.70506 -.86307
C -.71655 -4.30340 -1.96800
C -2.08773 -3.91807 -1.81741
C 1.40207 -4.40662 -.77772
C -.09816 -3.42565 -2.91942
C 1.21332 -3.00100 -2.77588
C 2.02444 -3.56715 -1.70570
C 4.59748 -1.92675 .51253
C 3.71023 -2.93082 .07295
C 3.26446 -2.89949 -1.30954
C 3.72551 -1.87269 -2.13760
C 1.73101 -4.30057 .63561
C 2.78940 -3.02388 2.37077
C 2.85775 -3.56623 1.07348
C -3.79948 -2.82551 -.43598
C -4.12217 -2.30059 .85097
C -2.36042 -2.97030 -2.88418
C -3.39054 -2.07027 -2.75287
C -4.20407 -2.07931 -1.55464
C -1.12344 -2.54438 -3.44724
C -.86681 -1.18535 -3.70698
C 1.55727 -1.69966 -3.34269
C 2.84288 -1.24967 -3.11511
C -4.73152 -.75239 -1.39859
C -5.02130 -.22794 -.12529
C -4.74741 -1.05832 1.01099
C -4.93883 1.18396 .03769
C -4.12807 .07874 -2.40294
C -3.88406 1.42643 -2.17914
C -4.46552 2.00133 -1.00259
C -2.84496 3.80452 -1.01673
C -3.87247 3.16845 -.39100
C -1.65729 1.17685 -3.38015
C -2.67751 2.02155 -2.75483
C 1.35934 3.31877 -2.72630
C .01216 2.95987 -3.00987
C -.96208 3.72295 -2.35680
C -2.30072 3.27116 -2.25846
C .51431 -.73379 -3.69197
C -1.94563 -.23921 -3.56531
C -3.20904 -.72494 -3.17661
C 3.16558 .13450 -3.19519
C 2.16663 1.08738 -3.44579
C .79299 .65647 -3.66678
C -.31080 1.62708 -3.47970
C 2.44392 2.40049 -2.98655
C 3.02232 3.72366 -1.19140
C 1.69207 4.10920 -1.62044
C .67630 4.48355 -.67981
C -.62998 4.44469 -1.14566
C 3.29995 3.65989 .14643
C 4.25475 .39715 -2.29979
C 4.33251 1.61553 -1.61008
C 3.48220 2.66030 -2.07480
C 5.05103 .37550 .40581
C 5.03179 -.87407 -.35000
C 4.61391 -.86042 -1.66712
C 4.15404 2.59851 .65900
C 4.71264 1.60359 -.19343
C 3.56484 -1.85897 2.72594
C 3.66483 2.25504 1.93309
C 3.81991 .95957 2.46138
C 4.65955 .07722 1.74415
C 4.48109 -1.35487 1.84095
C .91073 4.26474 .73528
C -.17505 3.92553 1.59466
C 2.23356 3.89019 1.12007
C 2.45881 3.03046 2.19472
C 1.38245 2.50316 2.94885
C 1.52567 1.17443 3.52865
C 2.75575 .41869 3.30533
C 2.71564 -.96327 3.48450
