58
Modified xyz file
 C            1.38150141        0.04478787        4.15432560
 C            0.60328972       -1.15780204        3.91567653
 C            1.45507886       -2.09923085        3.23021280
 C            2.58971225       -0.05032562        3.35181573
 C            2.67067216       -1.39616194        2.83614544
 C            2.57470023        1.04606937        2.40707368
 C            0.61192965        1.17564410        3.66128736
 C            1.43182259        1.89098240        2.71674989
 C           -0.63515556       -0.76296020        3.27758280
 C           -0.66002263        0.68568575        3.19446701
 C           -1.12390169       -1.47946793        2.18720062
 C            0.94369594       -2.75588536        2.04257097
 C           -0.34915232       -2.48864977        1.58445536
 C            2.82377670       -1.58371477        1.40453037
 C            2.02691586       -2.75114416        1.08083965
 C            2.87508726        0.82199925        1.06190578
 C            2.78551528       -0.48107609        0.54239966
 C            2.66978487        1.90243275        0.21005531
 C            0.82259417        2.53873122        1.64986344
 C            1.67910628        2.88595537        0.61638321
 C           -1.21295671        1.24808237        2.05119990
 C           -0.52274927        2.24900986        1.34078245
 C           -2.14100174       -0.88437279        1.44489013
 C           -2.19698284        0.51705686        1.39628236
 C           -2.75589743       -1.65224168        0.46499315
 C           -0.68667882       -2.93339769        0.29843913
 C           -1.95554571       -2.65090163       -0.21078320
 C            1.71110013       -2.97581081       -0.24422112
 C            0.33674709       -3.30839120       -0.57660312
 C            2.39837124       -0.68952758       -0.79152186
 C            2.13072973       -1.98832384       -1.22035504
 C            2.46306396        1.66935883       -1.20348056
 C            2.08340099        0.39719457       -1.61713612
 C            1.13676507        3.48929353       -0.57326679
 C            1.76600100        2.83727523       -1.71131554
 C           -1.08987280        2.74970069        0.15039929
 C           -0.29316533        3.43224094       -0.77288694
 C           -2.95101693        1.17072311        0.43394698
 C           -2.34067653        2.28127040       -0.26985424
 C           -3.62025796       -1.02940746       -0.51656096
 C           -3.73718542        0.41154248       -0.51747555
 C           -2.14258495       -2.46001884       -1.64578058
 C           -3.15422650       -1.43865315       -1.83144626
 C            0.19427805       -3.04749933       -1.99729422
 C            1.30189174       -2.18812530       -2.38927235
 C           -1.03439170       -2.44788487       -2.47664049
 C            1.22085091        0.23731121       -2.71872677
 C            0.75014195       -1.02667741       -3.04756182
 C           -0.68674516       -1.22089192       -3.18300336
 C            0.74771794        2.65457975       -2.71896637
 C           -0.49477661        3.19393057       -2.19019285
 C            0.46984941        1.31342088       -3.18230843
 C           -2.59958563        2.08921359       -1.69430788
 C           -3.38644609        0.88219143       -1.84566499
 C           -2.80899387       -0.23636040       -2.57034820
 C           -1.53180269       -0.10743280       -3.12254774
 C           -1.57060325        2.31069515       -2.59327245
 C           -0.97371629        1.16595789       -3.27367881
