58
Modified xyz file
 C            1.54458711        0.00202411        3.93221676
 C            0.72391567       -1.18839601        3.83837187
 C            1.26010279       -2.02752090        2.78109156
 C            2.55144009       -0.07412615        2.88870853
 C            2.32543594       -1.27804947        2.12556962
 C            2.52887816        1.17749430        2.18004762
 C            0.69228244        1.14131436        3.63332465
 C            1.36276007        1.92652954        2.62478988
 C           -0.65487596       -0.75923092        3.72791437
 C           -0.62803627        0.63936875        3.32724303
 C           -1.53111901       -1.60479112        3.07476212
 C            0.36415704       -2.75297461        1.99812911
 C           -0.98544835       -2.75347103        2.36352613
 C            0.72989039       -3.05605303        0.68550659
 C            2.35046540       -1.21667074        0.73344698
 C            1.77805304       -2.27552599        0.04254005
 C            2.79157092        1.18599910        0.81851362
 C            2.56783236        0.00864709        0.07362339
 C            2.55541961        2.40601234        0.20539898
 C            0.60657958        2.55834059        1.64198001
 C            1.34101243        3.10404203        0.59029149
 C           -1.22380579        1.01870993        2.12269607
 C           -0.69795111        2.09606335        1.39303367
 C           -2.50795166       -1.01984156        2.18125484
 C           -2.20752225        0.19382211        1.55765572
 C           -2.00039547       -3.16316834        1.40731972
 C           -3.02242892       -2.12474104        1.39793184
 C           -0.27880934       -3.36504719       -0.32031964
 C           -1.61964579       -3.41723752        0.03214104
 C            1.43361869       -2.12387115       -1.35428520
 C            0.12275470       -2.72502725       -1.56644146
 C            2.38484668        0.09117567       -1.32323067
 C            1.74598368       -0.94798771       -2.01786795
 C            2.70408430        2.51173678       -1.22208287
 C            2.67154395        1.28895738       -1.98707647
 C            0.67775158        3.52897650       -0.62630214
 C            1.63059299        3.36322073       -1.71139279
 C           -1.37689842        2.52834284        0.25690165
 C           -0.65593956        3.19725751       -0.81504982
 C           -2.73358307        0.48209770        0.28962374
 C           -2.36587136        1.65817011       -0.35122478
 C           -3.39337574       -1.88138740        0.02476726
 C           -2.59774814       -2.76423393       -0.81532720
 C           -3.25079894       -0.53980853       -0.50458733
 C           -0.81434798       -2.06492307       -2.36741128
 C           -2.14165907       -1.98585617       -1.95361068
 C           -2.76805358       -0.67517317       -1.86585863
 C            1.02970652       -0.67795244       -3.18121492
 C           -0.35908422       -1.09073676       -3.25037909
 C            1.98361533        1.61447313       -3.22252947
 C            1.18388009        2.80493829       -2.97167526
 C            1.11458894        0.62308231       -3.80975998
 C           -1.10692239        2.63495520       -2.08359500
 C           -2.11893281        1.62970870       -1.78817136
 C           -2.13075175        0.40625107       -2.46507020
 C           -1.14088722        0.12647186       -3.40402425
 C           -0.21071551        2.43292690       -3.12894224
 C           -0.23379083        1.17269292       -3.84289121
