58
Modified xyz file
 C            1.35842885       -0.52817641        4.67509459
 C            0.53009793       -1.67122419        4.33890608
 C            1.12901069       -2.32231279        3.19048055
 C            2.43268264       -0.45049751        3.69626525
 C            2.21694878       -1.49385231        2.71244215
 C            2.50159618        0.91833647        3.24090797
 C            0.54806388        0.66498416        4.51376471
 C            1.35564939        1.62676780        3.79580038
 C           -0.76951042       -1.17722532        3.91351680
 C           -0.72878869        0.27140026        3.93687185
 C            0.06043734       -2.61066918        2.25828857
 C           -1.09850336       -1.83197242        2.65832067
 C            0.35925838       -2.61430155        0.90802835
 C            2.24125015       -1.19181814        1.34981124
 C            1.57115612       -2.05759252        0.48404128
 C            2.51460451        1.17328327        1.81235099
 C            2.47382807        0.11709254        0.90956318
 C            0.73630269        2.35061370        2.70638290
 C            1.64188475        2.30273191        1.57345463
 C           -1.21548699        0.95765268        2.82539456
 C           -0.61652439        2.17039142        2.44915328
 C           -1.75735636       -1.09943551        1.66803671
 C           -2.00120933        0.25762309        1.89690392
 C           -0.71402953       -2.51669596        0.03799906
 C           -1.69567893       -1.56887534        0.34530044
 C           -0.44926160       -2.82824670       -1.28292609
 C            1.74816312       -1.89101490       -0.89079569
 C            0.92407973       -2.66188613       -1.70945502
 C            2.17138903        0.41524101       -0.41547993
 C            2.15825153       -0.62757431       -1.33676672
 C            1.09061826        2.46372487        0.30449252
 C            1.48306483        1.59978158       -0.72113068
 C           -1.10337670        2.82309206        1.32618533
 C           -0.17145485        3.04399187        0.22731705
 C           -2.70678145        0.97706820        0.94406802
 C           -2.34896476        2.36572950        0.75140032
 C           -2.29114998       -0.82039534       -0.68241708
 C           -2.91065604        0.39120173       -0.37140103
 C           -1.27634431       -2.26340039       -2.32308977
 C           -2.04375357       -1.14002830       -2.02500016
 C            0.91467110       -2.44149761       -3.13957478
 C           -0.47888323       -2.31399318       -3.54155009
 C            2.06687558       -0.29413137       -2.68663522
 C            1.62376942       -1.29073986       -3.64403022
 C            0.91985925        1.74885072       -1.99354388
 C            1.43579628        0.96828793       -3.03017624
 C           -0.91788256        2.95968385       -1.01364046
 C           -2.28967675        2.61604718       -0.67407387
 C           -2.88852797        1.47679816       -1.34150034
 C           -0.34936202        2.33928404       -2.12218955
 C           -2.30058086       -0.18672207       -3.01505887
 C           -2.45237624        1.19797330       -2.62461993
 C           -1.24047193        1.85731176       -3.08202442
 C           -0.56355478       -1.22637431       -4.49290236
 C            0.76211740       -0.63707901       -4.61280317
 C            0.65661804        0.76231331       -4.23839037
 C           -1.49872768       -0.15400020       -4.23043804
 C           -0.74759867        1.09447445       -4.20892936
