58
Modified xyz file
 C            1.28314749       -0.07900347        3.82932840
 C            2.45774116       -0.41762081        3.05750134
 C            2.23468074       -1.73760443        2.48220303
 C            0.44146661       -1.26246003        3.85046332
 C            0.85539437       -2.08571152        2.73065680
 C           -0.92562656       -0.80021963        3.89075893
 C            0.44911774        1.01423977        3.36608993
 C           -0.90609290        0.64682338        3.70561603
 C            0.71454837        1.58541855        2.12073040
 C            2.83716339        0.45572693        1.96576199
 C            2.02320518        1.53234207        1.62507002
 C            2.69168543       -1.69202092        1.11371455
 C            3.31977027       -0.39819492        0.89860129
 C            1.88623622       -2.19873031        0.10629686
 C           -0.01158397       -2.24986297        1.64740577
 C            0.50539770       -2.37197160        0.34092331
 C           -1.85738913       -1.32488486        2.91554431
 C           -1.39063747       -2.10000563        1.85216968
 C           -1.96557237        0.96944065        2.77534360
 C           -2.76713342       -0.23468813        2.62913793
 C           -0.34479410        1.95374346        1.26865782
 C           -1.67857512        1.72134665        1.64014106
 C           -0.06170456        2.54375944        0.02774935
 C            2.32249745        2.18959190        0.44223997
 C            1.26141342        2.86492833       -0.27385838
 C            3.35147020        0.12057163       -0.39491352
 C            3.13256347        1.49093840       -0.54714490
 C            2.34437964       -1.97752842       -1.18526531
 C            3.07521728       -0.74734239       -1.45643311
 C            1.47678934       -2.24501502       -2.30406773
 C           -0.36926714       -2.61116543       -0.73529298
 C            0.06998591       -2.42048554       -2.04263105
 C           -2.26648460       -2.34335811        0.80340227
 C           -1.74137528       -2.52939828       -0.53217451
 C           -3.59894417       -0.34699448        1.52530538
 C           -3.47395411       -1.53439800        0.69464337
 C           -2.67452072        1.81730098        0.67602842
 C           -3.71208974        0.79617736        0.63604110
 C           -1.03261542        2.55672568       -0.98560588
 C           -2.31471475        2.11753387       -0.69221156
 C           -0.63993705        2.43456987       -2.31615674
 C            1.69087719        2.96623059       -1.65872979
 C            2.79340137        2.03523670       -1.84866302
 C            0.72267929        2.72348757       -2.70265383
 C            2.62083113       -0.23575463       -2.74383134
 C            1.62775380       -1.16274042       -3.26333217
 C            2.43539129        1.12874031       -2.92185958
 C            1.19518212        1.60963244       -3.51019274
 C           -0.66508265       -1.49521291       -2.89183770
 C           -1.08374355        1.26488637       -3.05574551
 C            0.29989672       -0.67485014       -3.60039806
 C            0.08183141        0.68838006       -3.69964215
 C           -2.52261547       -1.70238364       -1.44079237
 C           -3.62426137       -1.13198692       -0.69425744
 C           -3.79849602        0.29873758       -0.72798815
 C           -2.88284148        1.07629844       -1.53474277
 C           -1.84356124       -0.94157498       -2.39453300
 C           -2.04810130        0.45035956       -2.46257094
