58
Modified xyz file
 C            1.56652516        0.16270534        4.35384267
 C            0.73085352       -1.02185046        4.27595289
 C            1.43264596       -2.00129514        3.46839022
 C            2.64123033        0.00843099        3.38685562
 C            2.59445910       -1.34691169        2.88718988
 C            2.53813497        1.09910102        2.43526623
 C            0.76456369        1.29898204        3.93671451
 C            1.50342452        2.00440526        2.90860330
 C           -0.60146154       -0.60747972        3.86834275
 C           -0.57091191        0.82430798        3.61475545
 C           -1.32838907       -1.42043124        3.01081643
 C            0.71241512       -2.65956496        2.39185161
 C           -0.66641338       -2.52049688        2.31493038
 C            2.53811931       -1.55050519        1.45399151
 C            1.49510273       -2.51502205        1.17369110
 C            2.62523986        0.84569637        1.06565972
 C            2.67275385       -0.47563840        0.58626213
 C            2.25214865        1.86935607        0.18875695
 C            0.77498054        2.71022521        1.96306012
 C            1.27677331        2.77550839        0.60078543
 C           -1.20601056        1.33949017        2.48247653
 C           -0.65676868        2.46718613        1.86669079
 C           -2.24502169       -0.80219058        2.06976539
 C           -2.14113715        0.55722145        1.79278216
 C           -1.30040420       -2.65516983        1.01780241
 C           -2.42473209       -1.73630915        0.97240369
 C            0.83757715       -2.43785117       -0.05566207
 C           -0.51443435       -2.78943187       -0.12198963
 C            2.38176702       -0.70414730       -0.75341096
 C            1.39525479       -1.65109966       -1.07610319
 C            2.42713424        1.67428695       -1.17665384
 C            2.66560092        0.32366111       -1.63618234
 C            1.44898047        2.24037922       -2.08854367
 C            0.13752473        3.03091564       -0.27018901
 C           -1.06610280        2.83455598        0.52210355
 C            0.19257225        2.58236091       -1.58913347
 C           -2.71837302        1.03545512        0.61868455
 C           -2.15024594        2.19640311       -0.04745492
 C           -2.83400826       -1.26588925       -0.27191695
 C           -3.13562051        0.09157984       -0.41220380
 C           -1.16756723       -2.70405938       -1.34344703
 C           -2.44101980       -1.99911953       -1.38996918
 C            0.80335316       -1.65873551       -2.34768371
 C           -0.41928825       -2.30532779       -2.51732784
 C            2.20899382        0.23601879       -3.00538843
 C            1.56818457        1.50295798       -3.32946838
 C            1.28133603       -0.81580480       -3.35370344
 C            0.36816658        1.20570818       -4.07703849
 C            0.35333230       -0.22893638       -4.30756108
 C           -0.97077733        2.10126453       -2.21303977
 C           -2.14141446        1.93047226       -1.47309845
 C           -2.96934662        0.75676840       -1.69949298
 C           -0.91306560        1.55379184       -3.49642731
 C           -2.58099585       -1.42874355       -2.71756093
 C           -1.39016065       -1.78844321       -3.46962149
 C           -1.03184255       -0.65256865       -4.29198200
 C           -2.77220227        0.00228296       -2.84809892
 C           -1.83143289        0.48154411       -3.84807463
