58
Modified xyz file
 C            1.31788944       -0.10009615        3.65561952
 C            2.44861994       -0.30801913        2.76401591
 C            2.21124132       -1.55223393        2.05113710
 C            0.47955697       -1.28531191        3.59938792
 C            1.12345564       -2.24579156        2.72977445
 C           -0.87200059       -0.86620314        3.28239784
 C            0.46730548        1.06305837        3.45614918
 C           -0.85840315        0.57909687        3.10794134
 C            0.98621245        2.15593713        2.77856072
 C            2.95298650        0.78065554        2.06854507
 C            2.35991628        2.08644618        2.30732987
 C            3.16049335        0.65986247        0.63494639
 C            2.28448975       -1.58335703        0.65626882
 C            2.59878678       -0.41869216       -0.04919827
 C            1.72586127       -2.66222573       -0.01775705
 C            0.32043417       -3.10376910        1.99469850
 C            0.78696022       -3.51910275        0.68633662
 C           -1.63886531       -1.63443783        2.40949188
 C           -1.10778071       -2.82022578        1.88111132
 C           -2.70612410       -1.00978029        1.76899943
 C           -1.54842111        1.13148118        2.02984867
 C           -2.63656232        0.42541969        1.53175621
 C            0.19695294        2.76598868        1.72099109
 C           -0.92865303        2.10049438        1.23300243
 C            2.44494842        2.84417059        1.07337041
 C            3.07624462        1.99741774        0.07336782
 C            1.12679692        3.39202158        0.79543194
 C            2.69119437        2.14598174       -1.24916908
 C            2.19338257       -0.26619167       -1.38333441
 C            2.37165173        0.95971674       -2.02626207
 C            1.22450015       -2.47368165       -1.36395010
 C            1.45324968       -1.26958936       -2.01854435
 C           -0.37370549       -3.71155854       -0.16500750
 C           -1.55050263       -3.31690840        0.58113778
 C           -0.10395745       -3.06621428       -1.43502204
 C           -3.30661883       -1.62673452        0.60238424
 C           -2.57432359       -2.66614579       -0.09094952
 C           -3.09437446        0.67712321        0.18039310
 C           -3.60863253       -0.57373696       -0.35100616
 C           -1.31765739        2.27691411       -0.10306130
 C           -2.34233670        1.49943527       -0.64939694
 C            0.74967730        3.55208579       -0.52804646
 C            1.68761458        3.15012643       -1.56448667
 C           -0.56778795        3.10087734       -0.94306718
 C            1.44039246        1.36386561       -3.06693004
 C            0.91907434        2.66973763       -2.69699954
 C           -0.49027105        2.79153034       -2.36121893
 C            0.60967454       -0.93986237       -3.07836540
 C            0.55802229        0.42418967       -3.57799093
 C           -1.11665226       -2.36240642       -2.08199333
 C           -2.37006485       -2.22436747       -1.46780483
 C           -3.15468104       -1.00726679       -1.65788915
 C           -0.74343457       -1.47694805       -3.09038663
 C           -2.39346967        1.28796918       -2.02949153
 C           -1.37531854        1.86487378       -2.89157470
 C           -0.84437273        0.78695589       -3.71189427
 C           -2.70042781       -0.04153245       -2.54238283
 C           -1.64218657       -0.40104192       -3.46121436
