58
Modified xyz file
 C            1.27367266        0.03143331        3.71492020
 C            2.51402526       -0.20709273        3.01637943
 C            2.50861300       -1.59166600        2.58051034
 C            0.43907076       -1.15487177        3.56605045
 C            1.15197665       -2.08941760        2.72293102
 C           -0.87889412       -0.71191244        3.15605870
 C            0.46785638        1.16856834        3.32454088
 C           -0.91422242        0.72374009        3.35999225
 C            0.88117941        2.00902833        2.28713168
 C            2.82863917        0.61121299        1.86318600
 C            2.01354347        1.68864383        1.51776514
 C            3.12402417       -1.64783644        1.26733837
 C            3.31114094       -0.27330714        0.81140485
 C            2.65052486       -2.59273040        0.37027314
 C            0.52062479       -2.61930453        1.60192035
 C            1.32079770       -3.14700162        0.58624463
 C           -1.45048133       -1.24096872        2.00212855
 C           -0.81808227       -2.30411137        1.33419305
 C           -2.50379929       -0.54279889        1.39494033
 C           -1.86149182        1.46892707        2.67778270
 C           -2.70452337        0.80274605        1.69689350
 C           -0.04050818        2.94368395        1.81319360
 C           -1.44951875        2.73930806        2.10694899
 C            0.05397991        3.44367544        0.45219104
 C            2.16133739        2.21659213        0.23764296
 C            1.14655347        3.08946966       -0.32330927
 C            3.07411042        0.06513372       -0.52462387
 C            2.65786403        1.35880128       -0.82789642
 C            2.78110344       -2.31934880       -1.04480345
 C            2.89989530       -0.93862158       -1.47608250
 C            0.74586981       -3.44857399       -0.71479758
 C            1.63673772       -2.90621289       -1.72255466
 C           -1.43518435       -2.89363031        0.23386797
 C           -0.62098031       -3.30939555       -0.89432998
 C           -3.07947332       -1.02903658        0.22805859
 C           -2.63964338       -2.29857722       -0.30564709
 C           -3.27759148       -0.11395863       -0.88587979
 C           -2.95299385        1.73399117        0.60644082
 C           -2.19960033        2.94498285        0.88047210
 C           -1.28287808        3.43799452       -0.12784883
 C           -3.01151179        1.24486434       -0.69792875
 C           -1.46318149        3.02451701       -1.44117452
 C           -2.45459782        1.99769022       -1.73596563
 C            0.96090649        2.72244536       -1.71916266
 C            1.83878612        1.59506023       -2.00811539
 C           -0.30572020        2.77465951       -2.28568147
 C            1.95835951       -0.73822320       -2.56803191
 C            1.11855558       -1.92424643       -2.65759085
 C            1.38111322        0.51254884       -2.76120006
 C           -1.11675178       -2.59856906       -2.06524513
 C           -2.45656873       -2.14250532       -1.74104406
 C           -2.84515677       -0.79337641       -2.10065910
 C           -0.25889783       -1.76938833       -2.79388483
 C           -2.03919908        1.33993598       -2.96199466
 C           -0.68049555        1.76666816       -3.25811442
 C            0.14110211        0.57768036       -3.39325248
 C           -2.08124207       -0.10702574       -3.03015515
 C           -0.73877398       -0.58029310       -3.34442712
