58
Modified xyz file
 C            1.28428754        0.15124085        3.95794827
 C            2.50732028       -0.04450835        3.20855633
 C            2.43363997       -1.34617623        2.55923091
 C            0.43738156       -1.01079168        3.73969911
 C            1.10965850       -1.88832157        2.79708947
 C           -0.89773653       -0.54031543        3.40978670
 C            0.49214443        1.33350179        3.69371042
 C           -0.87821975        0.90954950        3.45825674
 C            0.87144721        2.21466614        2.60282066
 C            2.88493369        0.92240869        2.19043231
 C            2.07554446        2.03359638        1.91997363
 C            2.87763426       -1.17840352        1.18649093
 C            3.44215527        0.15396801        1.08666003
 C            2.07003106       -1.65440474        0.15651771
 C            0.37933866       -2.37545508        1.71887227
 C            0.99814109       -2.49059071        0.47057257
 C           -1.57432002       -1.15029487        2.35975373
 C           -1.01006287       -2.28178103        1.77306465
 C           -2.45562319       -0.38191761        1.60143979
 C           -1.38601690        1.64207599        2.30977329
 C           -0.33076319        2.52193372        1.84217790
 C           -2.14900879        0.96223706        1.36983953
 C           -0.21294009        2.77959783        0.47981022
 C            2.23267149        2.69048569        0.70250458
 C            1.04343098        3.13181690       -0.01301465
 C            3.53025580        0.74605036       -0.16094233
 C            3.15360631        2.14086320       -0.27671651
 C            2.13838189       -1.05714918       -1.10880098
 C            2.96559930        0.04987801       -1.30704801
 C            1.23197578       -1.42630331       -2.10938104
 C            0.29632635       -3.08916642       -0.56719366
 C            0.35799903       -2.48575247       -1.88570507
 C           -1.75901092       -2.98782285        0.83871627
 C           -1.07658494       -3.50550788       -0.33224097
 C           -3.31638028       -1.04225050        0.73181462
 C           -3.02540610       -2.42608672        0.39891383
 C           -3.72914266       -0.37426698       -0.48754349
 C           -2.21189367        1.46615460        0.07025455
 C           -1.19589682        2.30903664       -0.39850018
 C           -3.09740090        0.88660220       -0.83511128
 C           -1.04035036        2.50692172       -1.77173941
 C            1.32128893        3.04769179       -1.43803950
 C            2.58219322        2.34042983       -1.59607959
 C            2.58862338        1.05846723       -2.28259368
 C            0.28479758        2.75738513       -2.31238622
 C            0.91992542       -0.52452991       -3.12664658
 C            1.56108058        0.78004314       -3.17125998
 C            0.51606791        1.77401110       -3.35845437
 C           -2.72461838        0.79890894       -2.23411154
 C           -1.73412878        1.63916729       -2.71129448
 C           -0.47268931       -0.35327912       -3.51695536
 C           -0.73322126        1.07335837       -3.59380443
 C           -1.00289481       -2.38926709       -2.39260530
 C           -1.86173455       -3.15232622       -1.50351336
 C           -3.10510160       -2.56928698       -1.04619647
 C           -3.51569156       -1.29461607       -1.59605493
 C           -1.43432693       -1.18210574       -2.94537774
 C           -2.65671680       -0.61936984       -2.55536992
