58
Modified xyz file
 C            1.41499313        0.07792253        4.04538291
 C            0.61760052       -1.09510537        3.74868953
 C            1.26818163       -1.83333206        2.67768727
 C            2.56252575        0.06366947        3.15847165
 C            2.44384625       -1.08401006        2.27476233
 C            2.66161497        1.37675005        2.55757392
 C            0.61616098        1.24403251        3.70683761
 C            1.37655094        2.03816625        2.76459094
 C           -0.74778278       -0.65462626        3.53969981
 C           -0.70044512        0.78250977        3.31293877
 C           -1.54389959       -1.42458961        2.70760251
 C            0.46784039       -2.40795272        1.69685686
 C           -0.90814406       -2.46781825        1.92017707
 C            0.94819537       -2.50101477        0.38809506
 C            2.70238287       -0.91003758        0.91800127
 C            2.02990870       -1.70432768       -0.01622678
 C            3.25388152        1.46728965        1.30683088
 C            3.35068398        0.25779517        0.49784582
 C            2.82399524        2.53698115        0.42719838
 C            0.72071013        2.60053668        1.67129080
 C            1.49388656        3.08285811        0.61579456
 C           -1.28302008        1.30357470        2.15892469
 C           -0.64084215        2.34178270        1.46301459
 C           -2.48112663       -0.75939921        1.82137628
 C           -2.33604395        0.59850073        1.56245284
 C           -1.79872967       -2.76782650        0.81488678
 C           -2.74728580       -1.66378010        0.71228481
 C            0.17214398       -3.16660700       -0.56501780
 C           -1.25938196       -3.30322211       -0.34235602
 C            0.37836885       -2.91256620       -1.98110604
 C            2.28246152       -1.50736727       -1.37306879
 C            1.33953507       -1.99017148       -2.36488536
 C            3.29740455        0.65844113       -0.90040813
 C            2.91266538        2.05743412       -0.94168709
 C            2.73519245       -0.20652874       -1.82423715
 C            0.90189977        3.23596492       -0.70190546
 C            1.68161033        2.42604825       -1.62341677
 C           -1.26792812        2.92118227        0.36212135
 C           -0.47584696        3.23287768       -0.81558404
 C           -2.98391446        1.12200521        0.45148001
 C           -2.53011257        2.37950044       -0.10040326
 C           -3.06915523       -1.13557864       -0.53997369
 C           -3.31539276        0.23613801       -0.65709146
 C           -1.93381986       -3.04164344       -1.59817995
 C           -0.92076647       -2.90600073       -2.63086792
 C           -2.81885217       -1.89274449       -1.68613925
 C           -1.28588229       -1.77444108       -3.46250437
 C           -2.52018097       -1.21585138       -2.93554859
 C            0.97483692       -0.85603477       -3.21070754
 C            1.71400096        0.29642210       -2.73038898
 C            1.03920339        1.47903475       -2.42090753
 C           -0.33850864       -0.68607313       -3.62403277
 C           -1.08074186        2.53264490       -1.93321624
 C           -2.44474737        2.22851347       -1.54422664
 C           -2.99146958        0.93330409       -1.89640243
 C           -2.39275305        0.22712103       -2.92819849
 C           -0.34296691        1.57345894       -2.62873174
 C           -1.02254102        0.55618986       -3.30544904
