58
Modified xyz file
 C            1.24944620        0.08422812        4.19559831
 C            2.47040263        0.10249453        3.41134883
 C            2.53119539       -1.14566877        2.66847017
 C            0.46917358       -1.06608618        3.76686473
 C            1.24185081       -1.78912157        2.76666568
 C           -0.85892139       -0.59815327        3.40676187
 C            0.38039961        1.24509377        4.17538337
 C           -0.93897757        0.80960584        3.74272040
 C            0.75276284        2.39206585        3.36708067
 C            2.71290596        1.18916333        2.47148324
 C            1.87384382        2.29391204        2.44242846
 C            3.03391364       -0.84861569        1.34829528
 C            3.14594871        0.59714739        1.21976402
 C            2.53930793       -1.55281848        0.25911373
 C            0.60232000       -2.18073829        1.59347925
 C            1.31468481       -2.23633674        0.38424788
 C           -1.39982583       -1.02821847        2.20146960
 C           -0.78526317       -2.09101698        1.55121245
 C           -2.18188716       -0.15130140        1.44594995
 C           -1.40709265        1.73445061        2.72691416
 C           -0.41777569        2.78412911        2.60113140
 C           -1.96349433        1.22527393        1.55881691
 C            1.43866679        2.81927393        1.16064644
 C            0.02116781        3.14049700        1.26643049
 C            2.80177410        1.18030932       -0.00245298
 C            1.91323042        2.26819436       -0.03235870
 C            2.90948875       -1.05611813       -0.98093404
 C            2.96907673        0.38771275       -1.14069952
 C            2.33015816       -1.62234136       -2.17314658
 C            0.65271852       -2.71993042       -0.75855077
 C            1.16479802       -2.46593239       -2.03236249
 C           -1.45301281       -2.67325667        0.49120895
 C           -0.67455960       -3.13254661       -0.64245937
 C           -2.81169526       -0.64383018        0.29886780
 C           -2.61657035       -1.98709918       -0.03773120
 C           -3.26195557        0.26792434       -0.65969583
 C           -1.90337743        1.99580573        0.39732880
 C           -0.80089425        2.83467638        0.18700636
 C           -2.68106497        1.59888044       -0.68493802
 C            1.19287382        2.55143431       -1.19442313
 C           -0.21801701        2.88026012       -1.07436270
 C            2.29080290        0.71888905       -2.38064983
 C            1.97965814       -0.52409527       -3.06170545
 C            1.35973546        1.74045881       -2.38642928
 C            0.26128232       -2.10458356       -3.11418848
 C            0.62499135       -0.75854011       -3.52969805
 C           -1.54821778       -3.09138526       -1.80695676
 C           -2.79109469       -2.44970059       -1.40430575
 C           -1.08085041       -2.44174087       -3.01777946
 C           -3.46032314       -0.13980278       -2.04149993
 C           -3.15914017       -1.50136659       -2.43264946
 C           -2.07770056       -1.45735843       -3.40550215
 C           -2.20477239        1.84110182       -2.03814800
 C           -0.91575964        2.31608366       -2.21436108
 C            0.04185429        1.52136548       -2.97207476
 C           -0.32326461        0.26099237       -3.45565281
 C           -2.66112052        0.74517085       -2.87203479
 C           -1.67380455       -0.06889097       -3.55893782
