58
Modified xyz file
 C            1.64685358       -0.06157005        4.19131109
 C            0.84072719       -1.25814536        4.34787297
 C            1.32563640       -2.24248128        3.40005530
 C            2.58522019       -0.28919312        3.10364943
 C            2.37368761       -1.62844950        2.59862898
 C            2.46251677        0.81615528        2.17407552
 C            0.76430775        1.01305738        3.77806053
 C            1.37497511        1.65954204        2.63814659
 C           -0.52292398       -0.93194530        3.96614541
 C           -0.56828372        0.47339576        3.60476490
 C            0.17158871       -2.79200655        2.71124965
 C           -0.95437834       -1.90671059        2.97831652
 C            0.35692712       -3.24748156        1.41502932
 C            2.34530942       -1.82215909        1.22107625
 C            1.58285687       -2.87919068        0.72651412
 C            2.54536196        0.56138994        0.80466639
 C            2.67521291       -0.76235157        0.36502507
 C            2.03159945        1.52601713       -0.07322441
 C            0.54945273        2.19937586        1.66743294
 C            1.12653625        2.46661385        0.43937399
 C           -1.27322108        0.83366484        2.46104821
 C           -0.81945579        1.90831261        1.68901012
 C           -1.73322606       -1.46537607        1.91016325
 C           -2.09752166       -0.11377515        1.86163213
 C           -0.72058032       -3.09108376        0.45452069
 C           -1.77734133       -2.23507581        0.74206148
 C            1.32287966       -2.96677571       -0.69726184
 C           -0.12323269       -3.05011124       -0.87226964
 C            2.74784708       -1.00831397       -1.00335659
 C            2.06148837       -2.16943079       -1.55385717
 C            2.15311817        1.33327162       -1.45711242
 C            2.56773320        0.09294268       -1.93365781
 C            1.52015238        2.20696913       -2.34475540
 C            0.40584731        3.28092828       -0.41419329
 C            0.75874115        3.31523561       -1.81284133
 C           -1.60745599        2.35080638        0.61642396
 C           -1.04146975        3.23633423       -0.30575995
 C           -2.97630621        0.31824075        0.87930350
 C           -2.73546477        1.60710466        0.24817801
 C           -2.58601244       -1.82549215       -0.31106303
 C           -3.36753655       -0.61668252       -0.15514627
 C           -0.75133175       -2.31430665       -1.88033328
 C           -2.04151503       -1.83449530       -1.66325786
 C            1.45841878       -1.77530879       -2.80984515
 C            1.93204005       -0.44167742       -3.12440999
 C            0.00988668       -1.76971729       -2.91405597
 C            0.77382567        1.66213904       -3.47433169
 C            0.82665380        0.29685519       -3.70159320
 C           -0.38339223       -0.49781982       -3.50545479
 C           -0.46990385        3.43122492       -2.57808316
 C           -1.58146084        3.30444629       -1.65123150
 C           -0.52406112        2.30351963       -3.48995308
 C           -3.11487134        1.48793146       -1.15769197
 C           -3.36743302        0.08712637       -1.42467182
 C           -2.47806040       -0.61663988       -2.33086508
 C           -1.56926043        0.11501302       -3.09242999
 C           -2.42178412        2.21919995       -2.10886673
 C           -1.68991750        1.50695309       -3.15216191
