58
Modified xyz file
 C            1.61861805       -0.21997954        4.24299060
 C            0.74905598       -1.37827214        4.30292816
 C            1.18448205       -2.30440255        3.27414291
 C            2.53413294       -0.40887700        3.12925671
 C            2.19243655       -1.64793869        2.46927180
 C            2.51104730        0.80096558        2.34293802
 C            0.79324225        0.93051295        3.92469612
 C            1.48134612        1.67515071        2.89201736
 C           -0.59328529       -0.94643460        3.94690617
 C           -0.54180254        0.46065499        3.62102276
 C           -0.00346937       -2.76778235        2.59249490
 C           -1.08688840       -1.85642969        2.93944147
 C            0.10078494       -3.12543190        1.25554432
 C            2.01093753       -1.65157833        1.08925586
 C            1.21006205       -2.65223569        0.53338197
 C            2.60543685        0.71247612        0.95713266
 C            2.31620857       -0.51001450        0.32506721
 C            2.36350623        1.89261543        0.26763609
 C            0.71943541        2.39756488        1.97999890
 C            1.38868648        2.80961953        0.83429543
 C           -1.11760789        0.90113973        2.43408425
 C           -0.64526811        2.09269231        1.87667769
 C           -1.87072631       -1.36096622        1.89822221
 C           -1.86080888        0.01890392        1.63033805
 C           -1.11073039       -3.25801034        0.59060475
 C           -2.11819431       -2.24549624        0.85047080
 C           -1.11421130       -3.54911207       -0.82412338
 C            1.27262457       -2.84704320       -0.84259694
 C            0.14076819       -3.44242985       -1.53290623
 C            2.11776462       -0.54992775       -1.06620115
 C            1.77838491       -1.76405627       -1.67011053
 C            2.15946007        1.86120908       -1.16190406
 C            2.02197861        0.63787057       -1.80469157
 C            0.64344154        3.40828475       -0.25519444
 C            1.26181431        2.95856845       -1.49556619
 C           -1.40212448        2.68444823        0.87077329
 C           -0.73862054        3.47832300       -0.14975561
 C           -2.37616275        0.49360474        0.41773664
 C           -2.39659340        1.86771434        0.20048302
 C           -2.55578453       -1.73697649       -0.43506448
 C           -2.06560968       -2.64553681       -1.45271825
 C           -2.49121325       -0.37366800       -0.67244373
 C           -0.10307194       -2.66774778       -2.73288827
 C            1.02356253       -1.76944632       -2.91646548
 C           -1.43295505       -2.08620909       -2.62956077
 C            1.48152020        0.61845790       -3.08967779
 C            0.77905144       -0.56168514       -3.54816402
 C            0.51573746        2.89493818       -2.66643838
 C            0.71030089        1.76392064       -3.55589462
 C           -1.55326724        3.41858486       -1.34916976
 C           -2.54565373        2.37184583       -1.15257001
 C           -0.90948744        3.18421458       -2.62896432
 C           -2.24658797        0.08728618       -1.97333860
 C           -1.56770163       -0.72721995       -2.89359749
 C           -0.60475824       -0.15625289       -3.72238530
 C           -0.60464600        1.27451878       -3.94561061
 C           -2.42894282        1.43963448       -2.25645529
 C           -1.59965521        2.07544066       -3.26535285
