58
Modified xyz file
 C            1.51887894        0.01711052        3.97424353
 C            0.73788948       -1.19462610        3.80328576
 C            1.43593994       -2.04315236        2.85303934
 C            2.61890721       -0.03171662        3.02750297
 C            2.68813066       -1.37862860        2.50431643
 C            2.45749836        1.06097913        2.08410571
 C            0.67418494        1.13742177        3.60812874
 C            1.31661592        1.84816760        2.51966848
 C           -0.63043613       -0.80812632        3.51799491
 C           -0.67225586        0.64148054        3.38919654
 C           -1.36070698       -1.57786201        2.62758515
 C            0.70811109       -2.70600468        1.86052963
 C           -0.68231784       -2.58862868        1.82435181
 C            1.37877535       -3.18053256        0.73549721
 C            3.18929076       -1.54740499        1.22437102
 C            2.71343632       -2.68089748        0.46026568
 C            2.62694802        0.80796351        0.71978750
 C            3.21234812       -0.39663393        0.32419624
 C            1.90224171        1.56573187       -0.21059483
 C            0.50627185        2.40821683        1.54786522
 C            1.02049718        2.54392820        0.26583909
 C           -1.41555584        1.21516610        2.35885632
 C           -0.87706191        2.32579071        1.70106294
 C           -2.34594139       -0.92981736        1.78108264
 C           -2.40730018        0.45828564        1.72378901
 C           -1.38449927       -2.68712309        0.55248469
 C           -2.44577394       -1.68971823        0.54553541
 C            0.67725775       -3.28465648       -0.53750517
 C           -0.67408590       -2.93932138       -0.61586432
 C            2.77423138       -2.32056790       -0.94168019
 C            2.99511216       -0.88750317       -1.02448274
 C            1.60140697       -2.87142844       -1.59026874
 C            1.83870075        1.15333251       -1.55146619
 C            2.21035786       -0.14622410       -1.89864343
 C            1.11490558        1.90281580       -2.47573802
 C            0.33532106        3.36528719       -0.62049582
 C            0.41310227        3.09309863       -2.03809288
 C           -1.67846657        3.04352805        0.82057819
 C           -1.04478981        3.70188217       -0.31183587
 C           -3.12319713        1.02603310        0.67518165
 C           -2.89380679        2.41929947        0.34047088
 C           -2.76537152       -1.02596630       -0.63813603
 C           -3.24713368        0.28176082       -0.57130456
 C           -1.21179186       -2.52219067       -1.83109961
 C           -2.24520887       -1.49578073       -1.84309731
 C            1.10126982       -2.19951589       -2.69388933
 C            1.51056688       -0.81753595       -2.90600465
 C           -0.32212889       -2.26788616       -2.94866781
 C            0.23906847        1.21112786       -3.40448376
 C           -1.92617701       -0.55010506       -2.90485741
 C            0.43276284       -0.14456201       -3.61396346
 C           -0.72442177       -1.01858333       -3.57159467
 C           -0.94818178        3.01542209       -2.55032438
 C           -1.84657508        3.43361521       -1.49500879
 C           -2.92031033        2.54379353       -1.10772399
 C           -2.96737540        1.20173548       -1.66321772
 C           -1.10685743        1.69779617       -3.14292920
 C           -2.08230049        0.81193010       -2.66784182
