58
Modified xyz file
 C            1.59453811        0.08003021        4.17691850
 C            0.79783347       -1.13078357        4.23994364
 C            1.49276527       -2.14665758        3.47390079
 C            2.60855854       -0.10991618        3.15073520
 C            2.56707611       -1.49238051        2.73949857
 C            2.41188251        0.91408277        2.14364713
 C            0.72630533        1.15603338        3.73612107
 C            1.37802740        1.81151281        2.62339541
 C           -0.56892242       -0.79176447        3.87214771
 C           -0.59707177        0.61562701        3.50287408
 C           -1.31120500       -1.69534142        3.12446850
 C            0.72828188       -2.93710937        2.52747311
 C           -0.65979729       -2.87554761        2.56660349
 C            2.38192480       -1.78885142        1.33282182
 C            1.40317061       -2.85315067        1.23867931
 C            2.40368092        0.58265933        0.78517267
 C            2.33578822       -0.76239934        0.38813615
 C            1.94859202        1.56260533       -0.10291776
 C            0.58018898        2.40068679        1.65744779
 C            1.16129610        2.60005728        0.41416052
 C           -1.26071456        1.02236147        2.34485795
 C           -0.79887731        2.16610901        1.69253423
 C           -2.21364112       -1.18391398        2.10905943
 C           -2.03505793        0.10676080        1.62255703
 C           -1.39470471       -3.24748911        1.37507850
 C           -2.44210218       -2.25740633        1.16599738
 C            0.66420622       -2.95582655        0.06489407
 C           -0.67138059       -3.36205769        0.12391113
 C            1.83417720       -1.06716439       -0.87872393
 C            1.09397957       -2.24852528       -1.05804304
 C            1.89122480        1.26832377       -1.46675798
 C            1.82367521       -0.07328858       -1.86196465
 C            1.56706539        2.29255644       -2.35927966
 C            0.50618261        3.46689822       -0.44763628
 C            0.81038953        3.42204409       -1.86172468
 C           -1.56974975        2.67058642        0.64914304
 C           -0.93258831        3.56207448       -0.30643099
 C           -2.40106553        0.40276087        0.30340731
 C           -2.38050205        1.72963636       -0.10732437
 C           -2.46422509       -1.94497133       -0.25275854
 C           -1.58803891       -2.90295826       -0.90466873
 C           -2.42126649       -0.61119853       -0.66260273
 C            0.37994061       -2.43711870       -2.23613647
 C           -1.06242174       -2.55948516       -2.13598371
 C            1.47633227       -0.41507174       -3.16957051
 C            0.64973648       -1.58260446       -3.37447246
 C            1.00524385        1.97764940       -3.65608811
 C            0.94666184        0.59328927       -4.06424282
 C           -0.45445234        3.45282967       -2.58467491
 C           -1.51460212        3.30249904       -1.60840327
 C           -2.21647560        2.03160995       -1.51913003
 C           -0.36218168        2.47421818       -3.64629455
 C           -2.04984562       -0.32859334       -1.98543997
 C           -1.58255804       -1.37552191       -2.78553078
 C           -0.64008981       -1.10013167       -3.84766115
 C           -0.45824918        0.26837980       -4.26521427
 C           -1.90122507        1.00169334       -2.40506809
 C           -1.21571359        1.30165362       -3.59084110
