58
Modified xyz file
 C            1.22799843       -0.05848090        3.83231135
 C            2.53319383       -0.30007441        3.24676931
 C            2.52054460       -1.64263292        2.69121829
 C            0.40018047       -1.22585276        3.56461765
 C            1.14358778       -2.10862997        2.69803339
 C           -0.88733262       -0.75864986        3.11728693
 C            0.47390910        1.11655123        3.42913472
 C           -0.89339263        0.69321989        3.19577980
 C            1.04461711        2.04200688        2.57046253
 C            3.02422366        0.59659970        2.21661785
 C            2.32697210        1.76707451        1.93005699
 C            3.23121465       -1.61274148        1.42462229
 C            3.54553909       -0.22037071        1.13064193
 C            2.77412199       -2.43798540        0.40518775
 C            0.58062591       -2.53704150        1.49648443
 C            1.45854623       -3.04308453        0.54235964
 C           -1.49004062       -1.35528989        2.01633380
 C           -0.69779955       -2.08180153        1.10805415
 C           -2.65719916       -0.74627489        1.57081104
 C           -1.70681347        1.38327872        2.29854009
 C           -2.81271248        0.67713525        1.82486018
 C            0.19918385        2.71441178        1.60256750
 C           -1.16342539        2.42850436        1.52686190
 C            2.25694563        2.25259974        0.56047412
 C            0.95146401        2.85645863        0.36531063
 C            3.47409752        0.24452903       -0.17969974
 C            2.82218638        1.51427053       -0.46673490
 C            2.90164760       -2.01106774       -0.97755455
 C            3.15746643       -0.67644064       -1.26148573
 C            0.98096354       -3.34771890       -0.78341639
 C            1.88416038       -2.71291647       -1.73570518
 C           -1.16139013       -2.29826238       -0.20620443
 C           -0.36465215       -2.96113421       -1.13688892
 C           -3.13708678       -0.99951155        0.23133751
 C           -2.29761331       -1.63157413       -0.67181372
 C           -3.64352796        1.23113631        0.77844743
 C           -3.88235080        0.17569392       -0.19382342
 C           -1.83281231        2.88244362        0.38875614
 C           -3.15946105        2.39147708        0.07190213
 C            0.27843491        2.71621008       -0.84780346
 C           -1.08721303        2.99985633       -0.85651474
 C            2.10368255        1.37912835       -1.72082897
 C            2.32986087        0.03401767       -2.22785742
 C            0.84741331        1.96068518       -1.88388542
 C            1.06378188       -1.97713666       -2.68179364
 C           -0.30027477       -2.44862508       -2.49139864
 C            1.29750012       -0.61729559       -2.90402374
 C           -2.43163507       -1.35079414       -2.03447145
 C           -1.34656522       -1.66698235       -2.94972940
 C           -3.63853577        0.72029793       -1.51704737
 C           -3.20070179        2.09910123       -1.35160886
 C           -1.93439446        2.52055321       -1.93444505
 C           -2.99924188       -0.07767769       -2.45662578
 C            0.05547783        1.50172983       -2.93483889
 C            0.27672877        0.15747218       -3.45110075
 C           -1.02381099       -0.44998429       -3.66951209
 C           -1.37387618        1.76137986       -2.94915662
 C           -2.04241096        0.53820952       -3.35987222
