58
Modified xyz file
 C            1.66755472        0.00000000        4.00863423
 C            0.82756357       -1.17238631        3.84101818
 C            1.38956996       -1.97194374        2.76898604
 C            2.64748374       -0.00000000        2.93483945
 C            2.50915573       -1.23228174        2.20241402
 C            2.50915573        1.23228174        2.20241402
 C            0.82756357        1.17238631        3.84101818
 C            1.38956996        1.97194374        2.76898604
 C           -0.54618436       -0.72890366        3.72495871
 C           -0.54618436        0.72890366        3.72495871
 C           -1.38809592       -1.41721103        2.86111033
 C            0.53816389       -2.65016299        1.89683977
 C           -0.84321517       -2.46301568        2.00039656
 C            1.07342628       -3.07580230        0.68398164
 C            2.65133099       -1.22487217        0.81973321
 C            2.25049162       -2.38839427        0.17786638
 C            2.65133099        1.22487217        0.81973321
 C            2.62700290       -0.00000000        0.11578926
 C            2.25049162        2.38839427        0.17786638
 C            0.53816389        2.65016299        1.89683977
 C            1.07342628        3.07580230        0.68398164
 C           -1.38809592        1.41721103        2.86111033
 C           -0.84321517        2.46301568        2.00039656
 C           -2.39380436       -0.69243659        2.10024724
 C           -2.39380436        0.69243659        2.10024724
 C           -1.67802209       -2.52455637        0.80838666
 C           -2.60248705       -1.40050330        0.85129728
 C            0.20006938       -3.33226085       -0.45016627
 C           -1.12412491       -2.90025289       -0.41284563
 C            2.21079504       -2.43145034       -1.26138307
 C            0.99097030       -3.11978049       -1.65034369
 C            2.51990900       -0.00000000       -1.29387474
 C            2.26624095       -1.18305764       -1.98070460
 C            2.21079504        2.43145034       -1.26138307
 C            2.26624095        1.18305764       -1.98070460
 C            0.20006938        3.33226085       -0.45016627
 C            0.99097030        3.11978049       -1.65034369
 C           -1.67802209        2.52455637        0.80838666
 C           -2.60248705        1.40050330        0.85129728
 C           -1.12412491        2.90025289       -0.41284563
 C           -2.86771329       -0.70339690       -0.32499670
 C           -2.86771329        0.70339690       -0.32499670
 C           -1.75328748       -2.48317600       -1.58901277
 C           -2.73513217       -1.41252256       -1.51788238
 C            0.40139338       -2.39109141       -2.75394487
 C            1.21346165       -1.20204627       -2.98644437
 C           -0.97799842       -2.28627996       -2.80871431
 C            1.21346165        1.20204627       -2.98644437
 C            0.40139338        2.39109141       -2.75394487
 C            0.60649473        0.00000000       -3.35908603
 C           -1.75328748        2.48317600       -1.58901277
 C           -2.73513217        1.41252256       -1.51788238
 C           -0.97799842        2.28627996       -2.80871431
 C           -2.72895128       -0.72168705       -2.79045840
 C           -1.55461453       -1.16568296       -3.52455227
 C           -0.72644847       -0.00000000       -3.77787554
 C           -2.72895128        0.72168705       -2.79045840
 C           -1.55461453        1.16568296       -3.52455227
