58
Modified xyz file
 C            1.51693790       -0.14740386        4.30141027
 C            0.68259884       -1.32284884        4.12277363
 C            1.50302600       -2.34363414        3.50731882
 C            2.71508651       -0.33844630        3.50195398
 C            2.71384076       -1.70055334        3.01610706
 C            2.76505527        0.73171863        2.52959212
 C            0.80008166        0.99450796        3.75616919
 C            1.63870908        1.62106727        2.76391969
 C           -0.54009287       -0.90147677        3.45626137
 C           -0.50113133        0.54520207        3.33435361
 C           -1.06224159       -1.64019782        2.38864623
 C            0.94119452       -3.10502524        2.41341884
 C           -0.38490023       -2.77088190        1.91960244
 C            2.78086997       -1.92609873        1.58125961
 C            1.85232742       -2.99530118        1.28365658
 C            3.08919825        0.45031347        1.20794743
 C            2.84283517       -0.84065068        0.70682129
 C            2.98237901        1.52501620        0.33748949
 C            1.04429405        2.20694367        1.64648229
 C            1.88901033        2.45839964        0.57239631
 C           -1.05944543        1.09785408        2.19449801
 C           -0.31939193        1.98128142        1.38871396
 C           -1.96166315       -1.00518711        1.52321263
 C           -2.08947709        0.38591764        1.60637098
 C           -2.28409111       -1.63937368        0.32016260
 C           -0.34642685       -3.01172120        0.49032417
 C            1.04106385       -2.89042400        0.08447666
 C           -1.29716776       -2.39687724       -0.30372243
 C            2.36777248       -1.00332095       -0.60534208
 C            1.35602438       -1.93221893       -0.87613560
 C            3.05159625        1.27755540       -1.08323021
 C            2.65959587       -0.03145343       -1.55352394
 C            1.32915669        2.81911027       -0.71184606
 C            2.19622043        2.25283653       -1.72931455
 C           -0.87871851        2.39037610        0.16294042
 C           -0.04692296        2.75921616       -0.90567463
 C           -2.86754663        1.05511558        0.67940340
 C           -2.23214627        2.12219615       -0.07262025
 C           -3.29334257       -1.09798693       -0.47307510
 C           -3.67974202        0.27786588       -0.23245013
 C           -3.21620806       -1.28270814       -1.91510406
 C           -0.93360359       -2.05567088       -1.60113204
 C            0.38239663       -1.63076349       -1.83697931
 C           -1.95329574       -1.72131229       -2.48133926
 C            1.75687465        0.16359864       -2.67566341
 C            1.57373860        1.60068089       -2.85913852
 C            0.65942374       -0.68268478       -2.83230679
 C           -0.51425124        2.68310133       -2.22259627
 C            0.32048559        2.05011711       -3.23968534
 C           -2.74919199        2.07018905       -1.43096481
 C           -3.70578305        0.97356038       -1.50625670
 C           -3.57587398       -0.02569368       -2.55103977
 C           -1.89428533        2.32395289       -2.49437183
 C           -1.66191540       -0.87704620       -3.61706157
 C           -0.34211770       -0.29079895       -3.72094773
 C           -0.52221634        1.12786252       -3.97004191
 C           -2.63704393        0.20584379       -3.63101952
 C           -1.90155927        1.45635996       -3.66509926
