58
Modified xyz file
 C            1.23573725       -0.03589084        3.98602671
 C            2.48119104       -0.28498215        3.28637271
 C            2.39700696       -1.60396886        2.68390481
 C            0.37028433       -1.18607260        3.78350348
 C            1.05536241       -2.11746763        2.90372694
 C           -0.94066912       -0.70058575        3.39648460
 C            0.47959736        1.15679831        3.65241193
 C           -0.84321066        0.73848152        3.20632384
 C            1.11465807        2.19051563        2.97727749
 C            2.90310903        0.64949993        2.25654122
 C            2.32374053        1.90991274        2.20399766
 C            2.88551194       -1.50526388        1.32247955
 C            3.07000560       -0.09448166        1.01808671
 C            2.31067422       -2.31826245        0.36272002
 C            0.35994211       -2.67199717        1.82959163
 C            1.06103878       -3.00383186        0.67082135
 C           -1.67521700       -1.44303092        2.48904888
 C           -1.02753713       -2.53872528        1.77843547
 C           -2.48867483       -0.74071033        1.51874678
 C           -1.41584299        1.33997243        2.07898992
 C           -2.16384402        0.57172177        1.18080020
 C            0.29398278        3.08942473        2.18851886
 C           -0.98907879        2.60980967        1.70578699
 C            2.17303107        2.55306232        0.91173368
 C            1.07141811        3.48712845        1.03154120
 C            2.56750054        0.43151250       -0.17672700
 C            2.28545828        1.80063956       -0.25897789
 C            2.18751339       -1.81307123       -0.98817050
 C            2.17972932       -0.43704070       -1.20879338
 C            0.35158454       -3.19297270       -0.58758376
 C            1.19377288       -2.63947597       -1.64085395
 C           -1.73446327       -2.70640552        0.51556909
 C           -2.78394590       -1.69490865        0.47107124
 C           -1.03149166       -3.02236352       -0.64649869
 C           -3.20674203       -1.21872341       -0.75653950
 C           -2.39553826        1.02734297       -0.12635383
 C           -3.05751533        0.20054640       -1.04013192
 C           -1.11382454        3.02464365        0.32146693
 C            0.16219707        3.60579196       -0.08775657
 C           -1.81160227        2.21802997       -0.57594772
 C            1.74444718        2.32307110       -1.43251639
 C            0.65068085        3.28708205       -1.34433786
 C            1.58123041        0.06206997       -2.37031724
 C            1.46629998        1.43672004       -2.54651619
 C            0.60215712       -2.17001860       -2.80009414
 C            0.83718767       -0.78984463       -3.19567666
 C           -1.63467008       -2.79477934       -1.88312902
 C           -2.81624202       -1.95095653       -1.94531769
 C           -0.80057943       -2.46267787       -3.02542144
 C           -2.78640007        0.34010318       -2.46214980
 C           -0.37816812       -0.29688272       -3.83105510
 C           -2.63182281       -0.99244631       -3.02096089
 C           -1.39599975       -1.32319495       -3.70365473
 C           -1.58848378        2.40387428       -1.94161410
 C           -0.31296928        2.94411882       -2.36772521
 C            0.30164406        1.96107692       -3.23782863
 C           -1.93859917        1.35577725       -2.88248570
 C           -0.73456258        1.03230592       -3.64684435
