58
Modified xyz file
 C            1.49765297        0.07975783        4.19017855
 C            0.69276587       -1.12847492        4.21477929
 C            1.43987632       -2.16664634        3.53076830
 C            2.60343033       -0.14527447        3.27470975
 C            2.60767179       -1.54541731        2.92039289
 C            2.50129656        0.83299102        2.21028897
 C            0.68107514        1.14476557        3.63568036
 C            1.39664687        1.72116665        2.51223559
 C           -0.63743384       -0.79145083        3.73640594
 C           -0.64820409        0.62043839        3.38755449
 C           -1.31281383       -1.68704793        2.91928159
 C            0.77208338       -2.95042494        2.50498676
 C           -0.60192877       -2.81587748        2.32512397
 C            2.60778730       -1.90237829        1.51472511
 C            1.64518254       -2.97357757        1.34238141
 C            2.66756208        0.44729553        0.88503349
 C            2.69230291       -0.91409995        0.53289105
 C            2.31330574        1.37431842       -0.08939969
 C            0.64918603        2.20127550        1.44116265
 C            1.24583433        2.24526427        0.17745901
 C           -1.29648658        1.03802567        2.22762501
 C           -0.73934368        2.09700730        1.51122287
 C           -2.22600113       -1.16954683        1.91627887
 C           -2.19584896        0.18332831        1.57989477
 C           -1.17779470       -3.05565600        1.01061556
 C           -2.31264019       -2.15840285        0.85901172
 C            1.10117594       -3.17476429        0.08053262
 C           -0.34099558       -3.29886996       -0.07430505
 C            2.41936822       -1.27972183       -0.79084600
 C            1.59287601       -2.37776700       -1.03296061
 C            2.63996659        1.06515882       -1.39857833
 C            2.54970522       -0.32402879       -1.79400837
 C            2.10632294        1.87086419       -2.47597493
 C            0.53258211        2.83747314       -0.87345275
 C            1.04068372        2.79965653       -2.17337153
 C           -1.49021818        2.66934983        0.49803022
 C           -0.79374640        3.21363440       -0.65257389
 C           -2.77630272        0.59710070        0.37636301
 C           -2.63164155        1.92859211       -0.00611593
 C           -2.69437817       -1.73903333       -0.40625644
 C           -3.10806674       -0.35757057       -0.58915586
 C           -0.69296962       -2.78056265       -1.38817217
 C            0.51358451       -2.25293867       -2.00226806
 C           -1.89080002       -2.10753156       -1.56483174
 C            1.63494089       -0.37020605       -2.92197837
 C            1.60992999        0.95899965       -3.49635148
 C            0.45947216       -1.11047314       -2.79935181
 C            0.13383646        2.75659336       -3.30986609
 C            0.35226968        1.48302487       -3.97619484
 C           -1.74640048        3.22484799       -1.75023947
 C           -2.81733968        2.30587434       -1.39960828
 C           -1.29114623        2.88742421       -3.08221973
 C           -2.92809388       -0.05670980       -2.00063436
 C           -1.94784463       -1.00447070       -2.50702966
 C           -0.78213814       -0.52786945       -3.10804602
 C           -0.84663115        0.69166671       -3.78591301
 C           -2.86053391        1.26639620       -2.41161652
 C           -1.91263174        1.62450199       -3.45429283
