58
Modified xyz file
 C            1.07578888       -0.07683389        3.93503190
 C            2.31621832       -0.40634668        3.26772848
 C            2.19366969       -1.75544550        2.73987614
 C            0.22331523       -1.25426389        3.88401998
 C            0.81969750       -2.18445508        2.94419261
 C           -1.12846778       -0.80383064        3.64753550
 C            0.29957592        1.04610870        3.44036219
 C           -1.09257316        0.63857210        3.45634831
 C            0.76299734        1.78257079        2.35076866
 C            2.76131888        0.44542296        2.18520700
 C            2.08749077        1.62978712        1.90963522
 C            2.73528679       -1.76023864        1.39015668
 C            3.13486754       -0.40069798        1.06443544
 C            2.09649119       -2.51977935        0.42656934
 C            0.08718544       -2.63927752        1.84547922
 C            0.79454715       -3.09250671        0.73060892
 C           -1.85895857       -1.36686385        2.53206315
 C           -1.28805200       -2.36629291        1.74357320
 C           -1.92141402        0.95264238        2.30403113
 C           -2.55670267       -0.27666259        1.87079691
 C           -0.17513784        2.40383219        1.51922833
 C           -1.43116541        1.81610411        1.33695202
 C            0.25845940        3.37343808        0.62312000
 C            2.48546134        2.29814371        0.75793331
 C            1.65368571        3.36603457        0.24293942
 C            2.95577157        0.10214718       -0.22709515
 C            2.92835618        1.49206030       -0.37107186
 C            2.04422837       -2.02966539       -0.93747274
 C            2.39803809       -0.71324163       -1.22337085
 C            0.11261070       -3.30842582       -0.52949705
 C            0.86077101       -2.60220660       -1.56313504
 C           -1.97729832       -2.70702127        0.57992122
 C           -1.26928575       -3.28213095       -0.55196200
 C           -2.89058515       -0.43653971        0.52912183
 C           -2.92701312       -1.74458485        0.04611238
 C           -1.99744480        1.77584550        0.06358036
 C           -2.67914454        0.62804644       -0.36160900
 C           -0.51969819        3.62122518       -0.57644514
 C           -1.64170030        2.74859417       -0.86776907
 C            1.72130826        3.32341230       -1.20802373
 C            2.40735872        2.09867534       -1.58376999
 C            0.38587787        3.57158108       -1.71588558
 C            1.94162570       -0.15583217       -2.41613994
 C            1.87513920        1.28550090       -2.57345390
 C            0.18397759       -1.87877624       -2.54541090
 C            0.77838483       -0.73271638       -3.07563577
 C           -1.93777786       -2.84245291       -1.76390267
 C           -3.05498792       -1.99691000       -1.37389345
 C           -1.17249064       -2.11965678       -2.76475601
 C           -2.94657623        0.46494694       -1.72376431
 C           -3.09059827       -0.86740179       -2.27569642
 C           -2.02154627       -1.04424675       -3.24660724
 C           -1.55088514        2.38734537       -2.27051738
 C           -0.18313368        2.65317191       -2.68603380
 C            0.59305185        1.61206342       -3.18810626
 C           -0.04954530        0.36318936       -3.56420764
 C           -2.17763010        1.22496647       -2.69258897
 C           -1.43274402        0.25987588       -3.48950694
