58
Modified xyz file
 C            1.43500988       -0.04947234        3.48152091
 C            2.51901669       -0.25457069        2.53599156
 C            2.40974424       -1.61989574        2.03642095
 C            0.58766819       -1.22853073        3.44953697
 C            1.10722042       -2.12339883        2.42912181
 C           -0.79084747       -0.78649776        3.34363090
 C            0.58434441        1.11525777        3.32773716
 C           -0.77310994        0.64709463        3.09678532
 C            1.05698248        2.18428787        2.58643624
 C            2.86963713        0.77944303        1.66690260
 C            2.30038231        2.04194553        1.83855629
 C            3.52029990        0.47783243        0.46978048
 C            2.89224208       -1.92191903        0.77479140
 C            3.65347172       -0.91138194        0.06540477
 C            2.00285472       -2.56167224       -0.18172487
 C            0.22932327       -2.61749043        1.46518247
 C            0.64935036       -2.72396389        0.12897450
 C           -1.67012454       -1.57152346        2.61747729
 C           -1.12855099       -2.62896723        1.77588076
 C           -2.71028804       -0.92102114        1.84679936
 C           -1.52027573        1.17650883        2.04024363
 C           -2.57195344        0.42068409        1.49634981
 C            0.12987778        2.92423860        1.75142372
 C           -1.12050293        2.38646815        1.44914919
 C            2.23280631        2.94943186        0.70583186
 C            0.90269835        3.53201349        0.68121941
 C            3.23542684        1.25602743       -0.72975615
 C            2.51894271        2.43514479       -0.61988387
 C            3.30929549       -0.99982183       -1.34275410
 C            2.38735092       -2.10847841       -1.50958978
 C            2.89027597        0.32022696       -1.78306662
 C            1.40602730       -1.99612483       -2.47968138
 C           -0.28433518       -2.84899495       -0.91300594
 C            0.10437078       -2.57855663       -2.22369259
 C           -2.09874317       -2.89160990        0.73643527
 C           -3.13434197       -1.87326416        0.83445531
 C           -1.64693904       -2.93032376       -0.63484054
 C           -3.41796107       -1.39117382       -0.50634657
 C           -2.58770481       -2.15177758       -1.42863539
 C           -3.28028254        0.88804339        0.39158563
 C           -3.58833623       -0.02521196       -0.70036187
 C           -1.76274333        2.85289480        0.30439684
 C           -2.93190525        2.16226388       -0.19239144
 C            0.39707981        3.43645426       -0.67602862
 C            1.32450165        2.60833257       -1.43137263
 C           -0.96153160        3.23474324       -0.84974192
 C            1.67662687        0.44438277       -2.45809607
 C            1.16712515       -0.69222773       -3.08181455
 C            0.83779496        1.53839287       -2.18845152
 C           -0.83153284       -1.91085794       -3.11234440
 C           -2.14950393       -1.56346984       -2.60947677
 C           -0.19125642       -0.68898967       -3.57730753
 C           -3.12720895        0.59305795       -1.93468812
 C           -2.74851945        1.96040338       -1.62232708
 C           -1.40703733        2.40958869       -1.95413297
 C           -0.52062799        1.51103991       -2.54489635
 C           -2.33169172       -0.13382654       -2.81292716
 C           -1.04989278        0.41881179       -3.22868560
