58
Modified xyz file
 C            1.47250866       -0.19607421        4.28574274
 C            0.70953281       -1.42841786        4.19391450
 C            1.55035902       -2.40974212        3.54358912
 C            2.62121983       -0.32699082        3.40466523
 C            2.69855263       -1.70710726        2.98545594
 C            2.51279926        0.69752581        2.38509855
 C            0.64263270        0.87987200        3.76957338
 C            1.36165191        1.52060355        2.69668802
 C           -0.58158181       -1.10614391        3.60847589
 C           -0.66169020        0.34173618        3.46528826
 C           -1.13232814       -1.91039359        2.60690792
 C            0.97426675       -3.21790786        2.48836470
 C           -0.38029101       -2.94284408        2.03536611
 C            2.74077935       -1.99657325        1.56522616
 C            1.84270926       -3.10727922        1.32834134
 C            2.73012356        0.38296252        1.04414300
 C            2.75046387       -0.96065507        0.63279588
 C            2.36940540        1.35198644        0.10166181
 C            0.64266303        2.01616932        1.62041454
 C            1.34755020        2.24592379        0.44539709
 C           -1.35892280        0.85478517        2.37564274
 C           -0.74152668        1.79245293        1.53272873
 C           -2.18795683       -1.38243944        1.87024951
 C           -2.36813751        0.06101671        1.85711236
 C           -2.39804906       -1.83989392        0.50841535
 C           -0.38311153       -3.11201970        0.58785394
 C            0.99788472       -3.05928868        0.14697385
 C           -1.34564960       -2.44949420       -0.16686762
 C            2.36297128       -1.26090924       -0.67294073
 C            1.31794398       -2.17269941       -0.87271591
 C            2.62338109        1.07769493       -1.23996516
 C            2.62218426       -0.31148740       -1.65210966
 C            1.97700224        1.85845355       -2.28180110
 C            0.72344442        3.01274206       -0.52646283
 C            1.09822198        2.86916816       -1.92147775
 C           -1.41309724        2.24725157        0.38522042
 C           -0.72120343        3.11739275       -0.46379883
 C           -2.97465047        0.41815994        0.59312414
 C           -3.17125005       -0.81212993       -0.16187465
 C           -2.55193457        1.56209751       -0.07726424
 C           -3.12709173       -0.74756945       -1.54474591
 C           -1.01791558       -2.00433716       -1.45333347
 C            0.33075929       -1.88111569       -1.81463841
 C           -2.00784947       -1.38524291       -2.22127468
 C            1.91786452       -0.40148161       -2.91638165
 C            1.61372941        0.94890469       -3.35648763
 C            0.69198055       -1.17073645       -2.95551680
 C           -1.64064520       -0.55195550       -3.35612544
 C            0.25183141        0.95500934       -3.86433601
 C           -0.29871784       -0.38304753       -3.66605632
 C           -0.09535429        3.10121465       -2.72185598
 C           -1.19424464        3.37695652       -1.80863557
 C           -0.54142305        2.07957841       -3.65571878
 C           -3.00848932        1.73298386       -1.38693813
 C           -3.32937110        0.54874344       -2.16377591
 C           -2.53458816        0.59287737       -3.37741007
 C           -2.35512462        2.66397118       -2.28286944
 C           -1.97422144        1.92774310       -3.48105253
