58
Modified xyz file
 C            1.22992358       -0.05542418        3.81710635
 C            2.53200360       -0.29988878        3.22700435
 C            2.50166267       -1.62456577        2.62754847
 C            0.40846630       -1.23285676        3.57850109
 C            1.12963304       -2.10329738        2.67994859
 C           -0.90406274       -0.78275855        3.17996926
 C            0.46658575        1.10860287        3.39869265
 C           -0.89303017        0.67075709        3.14734295
 C            1.03978650        2.04580866        2.55256782
 C            3.04136960        0.62441097        2.23061888
 C            2.36179368        1.81349490        1.97952827
 C            3.16516123       -1.54948859        1.33754803
 C            3.55510832       -0.16315081        1.12036515
 C            2.64338172       -2.28834771        0.28310349
 C            0.51517883       -2.51798905        1.50054825
 C            1.32691817       -2.89089495        0.42853389
 C           -1.57762433       -1.44750503        2.16133834
 C           -0.85378374       -2.28157371        1.29170468
 C           -2.74472940       -0.83423515        1.70991539
 C           -1.67463559        1.30134918        2.18118732
 C           -2.81981032        0.61541460        1.79227475
 C            0.21517434        2.67490408        1.53528328
 C           -1.07163151        2.19500728        1.27917291
 C            2.37006027        2.38048613        0.64090338
 C            1.08506963        3.02839939        0.42628081
 C            3.54153643        0.36651579       -0.16623017
 C            2.98167184        1.68960843       -0.40065273
 C            2.74308443       -1.77981634       -1.07533523
 C            3.18099776       -0.47803583       -1.29538896
 C            0.76096209       -3.03685139       -0.90011288
 C            1.61104370       -2.30242088       -1.82642949
 C           -1.44654351       -2.73025717        0.10887280
 C           -0.61684352       -3.00733836       -1.05146992
 C           -3.35480258       -1.23839067        0.45774399
 C           -2.67473299       -2.11927998       -0.36953586
 C           -3.58640184        1.09004258        0.66478966
 C           -4.00872612       -0.06944847       -0.10676239
 C           -1.66536666        2.46631198        0.03521643
 C           -2.95611036        2.02122983       -0.24117792
 C            0.55066339        3.09581110       -0.85122120
 C           -0.87819792        2.91105954       -1.02768503
 C            2.37928412        1.69301976       -1.72480798
 C            2.51288661        0.35578358       -2.28298781
 C            1.22304685        2.42978484       -1.95775145
 C            1.03803757       -1.53945028       -2.83811647
 C            1.49247759       -0.17579178       -3.06510546
 C           -1.20570573       -2.32815399       -2.19558526
 C           -2.50530604       -1.81993725       -1.78789531
 C           -0.40160677       -1.57366429       -3.04434916
 C           -3.81771996        0.24211290       -1.51027435
 C           -3.27708884        1.58972389       -1.59216862
 C           -2.97598769       -0.62147244       -2.31791531
 C           -1.09031460        2.35813647       -2.35680619
 C            0.20062971        1.91210052       -2.85521470
 C            0.33024143        0.63582128       -3.39293792
 C           -0.82688739       -0.24452616       -3.45846066
 C           -2.22464626        1.59174787       -2.59333511
 C           -2.08154415        0.22936620       -3.08789770
