58
Modified xyz file
 C            1.53593358       -0.07621056        4.13791820
 C            0.70891727       -1.26219777        4.02117370
 C            1.38794217       -2.19889953        3.14025068
 C            2.63323330       -0.20695093        3.19473811
 C            2.56300690       -1.52702050        2.60039928
 C            2.61006274        0.95207298        2.32059602
 C            0.73360404        1.06171947        3.72504829
 C            1.46852749        1.77468799        2.70032459
 C           -0.64098743       -0.83629628        3.68710487
 C           -0.59510574        0.58754076        3.39488433
 C           -1.41760931       -1.66136363        2.88733726
 C            0.61773947       -3.01595394        2.31896008
 C           -0.82994421       -2.88384850        2.35991362
 C            1.00358000       -3.22313484        0.93020680
 C            2.87904344       -1.66331258        1.25515010
 C            2.13577127       -2.59955618        0.42678686
 C            2.90155523        0.79888724        0.96413595
 C            3.15285583       -0.47549056        0.45239790
 C            2.50501275        1.81212361        0.09533420
 C            0.75450975        2.40441015        1.68791682
 C            1.45408230        2.71606265        0.52812967
 C           -1.18933830        1.07309201        2.23302380
 C           -0.62685034        2.19001041        1.60371308
 C           -2.22686140       -1.07174762        1.83312637
 C           -2.11931471        0.28651613        1.54149326
 C           -1.33631462       -3.07861001        1.01333129
 C           -0.20568727       -3.25432197        0.12176658
 C           -2.27061806       -2.00741681        0.72631067
 C           -0.23234939       -2.59962537       -1.10786092
 C            2.10980053       -2.06954064       -0.92438620
 C            2.79915995       -0.78893421       -0.92457363
 C            0.97067993       -2.20777413       -1.70959542
 C            2.28605273        1.52628125       -1.31567669
 C            2.34668614        0.21436187       -1.77886181
 C            0.73122594        3.16592808       -0.64500716
 C            1.23241275        2.41530906       -1.78931097
 C           -1.34687018        2.80734502        0.58527412
 C           -0.62884474        3.40259568       -0.53210250
 C           -2.60869100        0.74050852        0.31397443
 C           -2.48212435        2.09819782        0.03138087
 C           -2.29622469       -1.48248657       -0.55673714
 C           -1.43372176       -2.01119029       -1.51958650
 C           -2.77585250       -0.18634664       -0.72704130
 C           -1.55382861       -1.57333653       -2.83419231
 C            0.92360750       -1.45526807       -2.87776632
 C            1.57768842       -0.15361472       -2.88275169
 C           -0.33859762       -1.32111415       -3.57804492
 C            0.34940803        1.97563442       -2.77392396
 C            0.64646944        0.80098468       -3.46501329
 C           -0.41210092        0.03258223       -4.10028487
 C           -1.45699096        3.26355207       -1.71487858
 C           -2.68287256        2.58914473       -1.31734245
 C           -0.92354597        2.54843087       -2.86059294
 C           -3.07325870        0.23457291       -2.02168197
 C           -2.47961426       -0.49104183       -3.13098154
 C           -1.78387076        0.47582816       -3.96877164
 C           -3.01793535        1.64261709       -2.35803411
 C           -2.03264320        1.79160752       -3.41710097
