58
Modified xyz file
 C            1.42314806       -0.05106860        3.92862098
 C            0.59756614       -1.23106850        3.76013910
 C            1.09796785       -1.97506264        2.61806083
 C            2.41788716       -0.05514849        2.87112684
 C            2.19737405       -1.21754569        2.04513009
 C            2.37434182        1.23461442        2.22980236
 C            0.57239254        1.11047103        3.72584547
 C            1.18679833        1.92866494        2.70838974
 C           -0.78360641       -0.79801481        3.73797684
 C           -0.77456544        0.64130034        3.49815215
 C           -1.69054354       -1.57809163        3.03844075
 C            0.18022305       -2.56686149        1.75296979
 C           -1.17844238       -2.56871034        2.09805728
 C            0.54780077       -2.77519898        0.42051959
 C            2.24216028       -1.07366252        0.66486434
 C            1.62457193       -2.04691182       -0.11111676
 C            2.65294200        1.32337350        0.87229452
 C            2.59511626        0.15789121        0.08149609
 C            2.32162841        2.53714084        0.29080951
 C            0.38620123        2.56508391        1.76328361
 C            1.06747071        3.14875509        0.69488128
 C           -1.50589030        1.16197856        2.42932078
 C           -0.94166593        2.13409041        1.58370782
 C           -2.80689366       -0.91307235        2.39470599
 C           -2.65854006        0.48417654        2.02978440
 C           -2.19000373       -2.75008170        1.06509007
 C           -3.13568343       -1.65492071        1.18905955
 C           -0.37823754       -3.38216116       -0.42643647
 C           -1.78388139       -3.11995663       -0.20693927
 C           -0.18446898       -3.35027867       -1.86200652
 C            1.92046940       -2.08687245       -1.46640015
 C            1.03038967       -2.76816151       -2.38352758
 C            2.65201937        0.25829082       -1.32368761
 C            2.36292238       -0.86341131       -2.10952544
 C            2.46799144        2.70040972       -1.13240605
 C            2.63555669        1.51340280       -1.93862550
 C            0.36122241        3.53219883       -0.51256719
 C            1.29471599        3.41096890       -1.61976339
 C           -1.65310073        2.53575281        0.44913905
 C           -0.95693938        3.13631893       -0.67474989
 C           -3.15220814        0.62800416        0.67144713
 C           -3.24460002       -0.70302139        0.09520940
 C           -2.66798926        1.65911321       -0.10719986
 C           -2.20992767       -2.30781838       -1.33582084
 C           -1.30813445       -2.61016086       -2.42459785
 C           -2.60027528       -0.98994635       -1.10942952
 C            0.64317349       -1.80647133       -3.39723010
 C            1.57475925       -0.69968967       -3.32964150
 C           -0.76553304       -1.51891642       -3.20076158
 C            1.82112566        1.70072017       -3.12492250
 C            0.86443583        2.75653748       -2.83973114
 C            1.08781915        0.56145247       -3.63057258
 C           -1.37330925        2.42734354       -1.88260607
 C           -2.28354865        1.37406317       -1.47679516
 C           -2.03890299        0.05467979       -1.86213342
 C           -1.13995920       -0.20776613       -2.91111863
 C           -0.46397305        2.17375423       -2.89881598
 C           -0.33136741        0.81950074       -3.40919679
