58
Modified xyz file
 C            1.61162935        0.10214689        3.98285643
 C            0.78084297       -1.08078032        3.84972472
 C            1.37684956       -1.92375288        2.83332825
 C            2.55805176        0.10533281        2.87917501
 C            2.42239920       -1.14910668        2.17909889
 C            2.36398885        1.32683683        2.13129337
 C            0.75586251        1.26038949        3.81839036
 C            1.39474468        2.13567044        2.85577260
 C           -0.59164004       -0.65428855        3.66743549
 C           -0.58862848        0.79344904        3.52248808
 C           -1.40309231       -1.40918954        2.83899431
 C            0.55120956       -2.70774456        2.03191807
 C           -0.83900139       -2.55572092        2.13410965
 C            1.09914436       -3.17745885        0.84184430
 C            2.47591427       -1.16665172        0.78994417
 C            2.10401908       -2.35746614        0.18184935
 C            2.28239357        1.27160253        0.73986839
 C            2.34221593        0.03277133        0.07126666
 C            1.79566160        2.39659634        0.06944115
 C            0.57473223        2.97019506        2.11614354
 C            0.96076148        3.27992401        0.75393223
 C           -1.27742123        1.39934559        2.46865954
 C           -0.84867717        2.66443314        2.06974448
 C           -2.28280125       -0.72585774        1.91019803
 C           -2.04627014        0.61253177        1.59475356
 C           -1.69903520       -2.80376277        0.98127710
 C           -2.60586657       -1.67093145        0.85578231
 C            0.23489584       -3.73528539       -0.17954383
 C           -1.17424818       -3.40329373       -0.15716634
 C            1.84611303       -2.39042435       -1.24119757
 C            0.76918627       -3.34165126       -1.47093957
 C            2.18577187       -0.00515696       -1.32278068
 C            1.85303842       -1.20691084       -1.96754396
 C            1.79424319        2.41131036       -1.32145513
 C            2.15198629        1.19768104       -2.02816894
 C            0.66937098        3.01687753       -2.02890333
 C           -0.23910680        3.75900450        0.09684285
 C           -1.37071681        3.24496486        0.85201575
 C           -0.43638307        3.41843229       -1.29665600
 C           -2.47868969        1.11667904        0.35624700
 C           -2.14336522        2.40758473       -0.03472106
 C           -1.66011373        2.63071150       -1.38999589
 C           -2.94207834       -1.18814753       -0.39913933
 C           -2.92547689        0.24466553       -0.63342485
 C           -1.53417549       -2.90090138       -1.47598996
 C           -0.34228823       -2.93833947       -2.31380292
 C           -2.43184130       -1.84379046       -1.59341113
 C            1.12931917       -1.18729439       -3.16085666
 C           -0.12036785       -1.92388869       -3.23625418
 C            1.50642524        1.26109002       -3.32628015
 C            0.44146907        2.24352162       -3.23063448
 C            0.92931840        0.05489466       -3.87307725
 C           -1.74657553        1.59411381       -2.32277100
 C           -2.52073378        0.47324848       -2.01303020
 C           -2.22233062       -0.82284399       -2.60946072
 C           -1.16308360       -0.94535518       -3.49814112
 C           -0.81792225        1.53302732       -3.36427451
 C           -0.50962759        0.25696315       -3.98477492
