58
Modified xyz file
 C            1.41055147       -0.06240674        4.32169056
 C            0.60897462       -1.27294763        4.29888439
 C            1.39656036       -2.29764338        3.65021618
 C            2.51516179       -0.25226837        3.39491655
 C            2.53896429       -1.64575242        3.02025557
 C            2.38487641        0.73915290        2.34662171
 C            0.58948092        1.02301255        3.81166814
 C            1.28152291        1.61286308        2.69597874
 C           -0.69360364       -0.93067502        3.75059571
 C           -0.73874549        0.51502824        3.57167206
 C           -1.30314473       -1.74597854        2.79100804
 C            0.75629547       -3.12412763        2.64860815
 C           -0.60150895       -2.81406293        2.22337803
 C            2.51347064       -1.98298435        1.60981121
 C            1.59359697       -3.09030064        1.46321515
 C            2.51941104        0.37410640        1.00474881
 C            2.48949260       -0.97811329        0.63884871
 C            2.11786954        1.31401740        0.05258178
 C            0.53714243        2.11757918        1.64421818
 C            1.21542624        2.30645492        0.45426530
 C           -1.46684792        1.01640056        2.49719004
 C           -0.84862705        1.89152073        1.57978115
 C           -2.36862988       -1.20759209        2.07597250
 C           -2.53333893        0.23614886        2.07485562
 C           -2.60714148       -1.65287314        0.71258145
 C           -0.65412383       -3.01809248        0.78027902
 C            0.71690714       -3.08681746        0.31236567
 C           -1.58586419       -2.30221516        0.02349518
 C            2.02492155       -1.30741571       -0.63695649
 C            1.04960136       -2.30277676       -0.77373029
 C            2.21240360        0.98562326       -1.30208446
 C            2.14438432       -0.36665018       -1.66261570
 C            1.96384242        1.99014294       -2.24134950
 C            0.59282056        3.08895253       -0.49709427
 C            1.11695719        3.09465283       -1.84554959
 C           -1.53774780        2.29727821        0.41712354
 C           -0.85393007        3.01571582       -0.56755363
 C           -3.24691479        0.59511134        0.87361425
 C           -3.35996229       -0.60565346        0.05834838
 C           -2.70771789        1.64439908        0.03711637
 C           -3.00763922       -0.24500732       -1.29325649
 C           -2.85420286        1.19923435       -1.33925506
 C           -1.24656255       -1.89492102       -1.28428560
 C            0.06804688       -2.11658407       -1.72958384
 C           -2.09714694       -1.02211368       -1.99447839
 C            1.64508807       -0.73273376       -2.91509429
 C            0.49087795       -1.61003928       -2.94600600
 C            1.59930522        1.65236653       -3.60397517
 C            1.47720717        0.25864116       -3.95807818
 C           -0.01565480        3.12529156       -2.75307157
 C           -1.20188560        2.81118223       -1.96900054
 C           -2.02976678        1.74063147       -2.32087197
 C            0.32518233        2.30038523       -3.89307515
 C           -1.69624123       -0.51894017       -3.22822029
 C           -0.48462360       -1.02285997       -3.82648087
 C            0.15993870        0.06490993       -4.54323197
 C           -1.70685764        0.92681442       -3.41198017
 C           -0.60785205        1.27292893       -4.29902668
