58
Modified xyz file
 C            1.16449871       -0.26760585        4.19107689
 C            2.36757388       -0.57879176        3.44128107
 C            2.19858489       -1.89780828        2.85144956
 C            0.28416487       -1.42286277        4.11783810
 C            0.86641386       -2.36708302        3.17784668
 C           -1.06500939       -0.93843752        3.89187822
 C            0.38778780        0.90737261        3.83068771
 C           -1.00375754        0.50771257        3.74329701
 C            0.88562185        1.80230633        2.89106368
 C            2.79837362        0.32537532        2.38939800
 C            2.16203019        1.54658111        2.23179232
 C            2.59484157       -1.81575879        1.45647061
 C            3.09235084       -0.46998301        1.21022301
 C            1.82566520       -2.43826518        0.47523236
 C            0.08035718       -2.91078228        2.16763000
 C            0.62842441       -3.06239377        0.82484192
 C           -1.82567573       -1.46407156        2.77292599
 C           -1.31933108       -2.52423818        2.03438963
 C           -1.77048748        0.86833523        2.56074042
 C           -2.41191432       -0.33734023        2.06828808
 C           -0.01384113        2.37305586        1.89739039
 C           -1.24169941        1.77061038        1.63726767
 C            2.08908512        2.12841140        0.90553163
 C            0.80785187        2.80679151        0.78555077
 C            2.93087955        0.07923261       -0.06169320
 C            2.58093113        1.43114357       -0.19844461
 C            2.03129559       -2.06309855       -0.84766958
 C            2.70699323       -0.80467020       -1.11620210
 C            0.96037798       -2.20736594       -1.82401582
 C           -0.49096709       -3.05254440       -0.10565556
 C           -1.66915877       -2.62249373        0.62961153
 C           -0.31307016       -2.58980601       -1.40843157
 C           -2.65843346       -0.43323284        0.70446132
 C           -2.48869322       -1.66079277        0.05124404
 C           -1.72070190        1.74779922        0.32459325
 C           -2.62071064        0.74153081       -0.04378513
 C            0.24682264        2.91249461       -0.47880988
 C           -1.08295245        2.51409923       -0.66144550
 C            2.25980321        1.93988064       -1.45763980
 C            1.12998645        2.84838138       -1.55301231
 C            2.23964640       -0.31303284       -2.39681078
 C            1.11651593       -1.14553767       -2.80971369
 C            2.18807856        1.05295968       -2.60704008
 C           -0.01158940       -0.56153317       -3.38245272
 C           -1.42813909       -2.11238918       -2.09872041
 C           -2.59564736       -1.69118487       -1.33494696
 C           -1.25392877       -1.16542710       -3.19056346
 C           -3.15638289        0.72129979       -1.32408318
 C           -3.17931803       -0.54970873       -2.01432918
 C           -2.47243771       -0.37561297       -3.26963017
 C           -1.66615040        2.62648008       -1.92454084
 C           -2.74957945        1.73112883       -2.28035468
 C           -2.37585737        1.04853120       -3.51305849
 C            0.61933303        2.77727984       -2.90525257
 C            1.18414365        1.58217682       -3.51420816
 C            0.07390454        0.73185556       -3.90586983
 C           -0.81500394        2.73432402       -3.09609228
 C           -1.10189956        1.58670295       -3.93952929
