58
Modified xyz file
 C            1.12318756       -0.09727805        3.90395091
 C            2.36255076       -0.44190380        3.24556153
 C            2.27361616       -1.83826687        2.85040621
 C            0.27214609       -1.27927756        3.88609924
 C            0.87912844       -2.22267780        2.97228883
 C           -1.07771130       -0.83731572        3.62628817
 C            0.33613599        0.99709388        3.37407969
 C           -1.04523424        0.61424145        3.54794302
 C            0.69828890        1.60501503        2.17180178
 C            2.75465611        0.30513881        2.06959519
 C            1.92852698        1.30844374        1.55999754
 C            2.91651974       -1.97280559        1.55289844
 C            3.35322775       -0.64311705        1.14847944
 C            2.32773757       -2.81111506        0.61345456
 C            0.20073645       -2.63086387        1.82294053
 C            0.95783171       -3.25207701        0.83335140
 C           -1.74655873       -1.31052877        2.42961765
 C           -1.05029529       -2.07159521        1.49624603
 C           -1.98260681        1.00634082        2.52020114
 C           -2.55553425       -0.20756309        1.95560669
 C           -0.27284131        2.32227338        1.46080277
 C           -1.63363631        2.02306145        1.63774004
 C            0.13390083        3.10586330        0.38383744
 C            2.18969841        1.78754258        0.27461677
 C            1.41973782        2.82936898       -0.23000686
 C            3.39705988       -0.31219942       -0.19911440
 C            2.92760910        1.00028119       -0.61372796
 C            2.46468085       -2.51198291       -0.80240610
 C            2.94544561       -1.27072806       -1.19981336
 C            0.36797454       -3.51742217       -0.45860973
 C            1.30772072       -3.06944200       -1.47800552
 C           -1.52152125       -2.09586083        0.17707568
 C           -0.91441232       -2.92455696       -0.76431887
 C           -2.94703770       -0.16965186        0.62146457
 C           -2.47132346       -1.15725720       -0.25650063
 C           -2.52004435        2.23220831        0.58661811
 C           -3.28252083        1.08804910        0.11994187
 C           -0.80657322        3.43881815       -0.67489841
 C           -2.11814954        3.00248655       -0.57533727
 C            1.26415323        2.95242154       -1.66984628
 C           -0.11563887        3.30617144       -1.94621196
 C            2.49744347        0.88148849       -1.99845258
 C            2.24987502       -0.52738148       -2.24372376
 C            1.61409986        1.81878221       -2.50617730
 C            0.56420752       -2.24355147       -2.41461015
 C           -0.84109104       -2.48302447       -2.14337997
 C            0.99089764       -0.94227061       -2.68140899
 C           -2.74649479       -1.06661554       -1.62610676
 C           -1.76079084       -1.54813681       -2.57575388
 C           -3.54204992        1.26856150       -1.29202539
 C           -2.76821966        2.41604884       -1.74061863
 C           -3.27101984        0.16668933       -2.18437275
 C           -0.62698644        2.37295772       -2.93630402
 C            0.39718198        1.35908049       -3.15643060
 C            0.05984854        0.00306345       -3.12656591
 C           -1.27358871       -0.37675564       -3.28143858
 C           -1.96244480        1.99628796       -2.87739477
 C           -2.32149937        0.62544322       -3.18934388
