58
Modified xyz file
 C            1.56522783        0.15832748        4.20149912
 C            0.78117144       -1.04479321        3.98832876
 C            1.62887271       -1.98013737        3.28686927
 C            2.69474847        0.10810273        3.28680428
 C            2.80074627       -1.25221853        2.81500142
 C            2.51747013        1.16881915        2.31062276
 C            0.74588163        1.28812857        3.81201858
 C            1.49748939        2.05911402        2.84194459
 C           -0.47909759       -0.65979751        3.37273832
 C           -0.55908331        0.78950242        3.41265899
 C           -0.92351260       -1.32720749        2.22903485
 C            1.07375183       -2.67673440        2.14624130
 C           -0.25931029       -2.48601508        1.79812124
 C            2.90001662       -1.48228670        1.38762488
 C            2.06252831       -2.62794303        1.08563729
 C            2.51613560        0.86847966        0.94267332
 C            2.89489255       -0.40997949        0.50019923
 C            1.92685974        1.77924178        0.05303795
 C            0.77188498        2.82312835        1.94647502
 C            1.19892529        2.85410396        0.56366608
 C           -1.21317211        1.44370235        2.37693083
 C           -0.66975283        2.63978740        1.90223245
 C           -1.80862125       -0.66756098        1.36408724
 C           -2.04487929        0.70732238        1.53516957
 C           -2.36852633       -1.36451611        0.28326978
 C           -0.66495126       -3.08922342        0.61699512
 C           -1.84443321       -2.60278045       -0.06544130
 C            1.62080457       -2.80876614       -0.22306835
 C            0.34746521       -3.35120522       -0.39661168
 C            2.78225732       -0.72567482       -0.84702515
 C            2.16228187       -1.99157272       -1.22038248
 C            1.85103606        1.49237935       -1.31332645
 C            2.34004004        0.28117753       -1.78886365
 C            1.04158615        2.27167061       -2.14220762
 C            0.07384416        3.37383752       -0.19253598
 C           -1.11747729        3.17021185        0.62280255
 C            0.02574567        3.12785874       -1.55541536
 C           -2.80431112        1.40931112        0.60429158
 C           -2.26122684        2.63516268        0.04587282
 C           -3.15640508       -0.69983398       -0.65438318
 C           -3.47240604        0.69587504       -0.45947813
 C           -2.89954338       -0.90018633       -2.07384567
 C           -1.69049865       -2.93039310       -1.47379466
 C           -0.29939775       -3.29117751       -1.69398435
 C           -2.05926009       -1.93505303       -2.46405343
 C            1.46080347       -1.78758485       -2.48284815
 C            1.65616750       -0.40205386       -2.87921476
 C            0.23606087       -2.40491697       -2.70661170
 C           -0.87300129       -1.63861683       -3.25604607
 C            0.47078959        1.68204478       -3.34141486
 C            0.65962278        0.26365758       -3.58180930
 C           -0.65616101       -0.34495714       -3.72069042
 C           -1.24369496        2.80250816       -2.18832204
 C           -2.36075131        2.54082138       -1.40170653
 C           -3.20354603        1.39558862       -1.70755840
 C           -2.75886949        0.41207292       -2.68306823
 C           -0.95804506        1.95425714       -3.33512720
 C           -1.65517257        0.68699098       -3.48401409
