58
Modified xyz file
 C            1.59808849       -0.13547243        4.22520968
 C            0.77267514       -1.32400367        4.32080933
 C            1.26468571       -2.27468002        3.34368075
 C            2.52699444       -0.32133663        3.12143733
 C            2.26769936       -1.61170391        2.52506129
 C            2.43536717        0.84588451        2.27713524
 C            0.73115718        0.97081864        3.86807866
 C            1.38567394        1.70014866        2.80031749
 C           -0.57894719       -0.96578360        3.92023060
 C           -0.59280864        0.44447183        3.59895063
 C            0.10805743       -2.82773818        2.67118028
 C           -0.99480082       -1.90296164        2.89825170
 C            0.29260305       -3.29348216        1.38150472
 C            2.15602896       -1.71465930        1.13754231
 C            1.44325517       -2.79924062        0.63434766
 C            2.49234591        0.69320915        0.89803989
 C            2.33669446       -0.58200879        0.32479963
 C            2.15261494        1.80617137        0.13521649
 C            0.58741566        2.34086652        1.86242481
 C            1.18370889        2.68075745        0.65056878
 C           -1.21830447        0.86560143        2.43110180
 C           -0.78251405        2.05780602        1.85954872
 C           -1.70404072       -1.43347811        1.79324531
 C           -1.91229170       -0.05273299        1.62828727
 C           -0.82976847       -3.23186940        0.46910201
 C           -1.82240252       -2.27905175        0.69101554
 C            1.09108348       -2.83698373       -0.77197820
 C           -0.26401730       -3.36593726       -0.85870398
 C            2.14281188       -0.68398299       -1.06498871
 C            1.46727169       -1.78840864       -1.60328199
 C            2.40295808        1.74506609       -1.22814301
 C            2.36826413        0.44193053       -1.86377538
 C            1.79463087        2.70628597       -2.12571608
 C            0.47710630        3.53842182       -0.18756981
 C            0.78609985        3.59950955       -1.60136544
 C           -1.57686785        2.63122583        0.87799243
 C           -0.96524602        3.56166110       -0.05722565
 C           -2.57338526        0.41604501        0.48085278
 C           -2.46524845        1.76318057        0.12564895
 C           -2.62416285       -1.88919028       -0.37195728
 C           -2.97076217       -0.48753377       -0.50470489
 C           -1.05067148       -3.03258494       -1.95072552
 C           -2.33947349       -2.40841201       -1.70253600
 C            0.85725982       -1.69184701       -2.85356289
 C           -0.43066099       -2.33533477       -3.06210341
 C            1.66443126        0.58996450       -3.13063563
 C            1.19716185        1.96276092       -3.21870340
 C            0.79670357       -0.41202679       -3.52699754
 C           -0.45095849        3.35678318       -2.33113597
 C           -1.52975917        3.31337681       -1.37252958
 C           -2.32587395        2.10843602       -1.28219831
 C           -0.23541719        2.20583658       -3.18362660
 C           -2.80464650       -0.12061081       -1.90473597
 C           -2.50653949       -1.32318071       -2.65439859
 C           -1.36043993       -1.31806649       -3.53034203
 C           -0.61359568       -0.08618138       -3.67627431
 C           -2.16561976        1.08025067       -2.20803167
 C           -1.09162408        1.10401405       -3.12363422
