58
Modified xyz file
 C            1.62387000       -0.19434558        4.16702626
 C            0.78600437       -1.37664804        4.07899583
 C            1.59451861       -2.42257245        3.49392914
 C            2.74907727       -0.39293752        3.26753246
 C            2.77815676       -1.79198079        2.91852218
 C            2.64022491        0.58615750        2.20219723
 C            0.85375182        0.92637585        3.66095539
 C            1.60400170        1.52806666        2.58464902
 C           -0.45557329       -0.99141180        3.42346590
 C           -0.47914629        0.46037530        3.35227466
 C           -0.94380021       -1.72286793        2.33473735
 C            1.00061459       -3.25405759        2.46815522
 C           -0.29662814       -2.89159686        1.92063967
 C            2.82146277       -2.15288699        1.51744862
 C            1.93006674       -3.28621939        1.35492128
 C            2.71392813        0.19443939        0.85948764
 C            2.83057604       -1.16784220        0.52527048
 C            2.27261987        1.11542278       -0.10685914
 C            0.89535120        2.12589345        1.55820246
 C            1.53056194        2.22167908        0.33449031
 C           -1.13498431        1.04048387        2.27601726
 C           -0.50289969        2.06314600        1.55764228
 C           -1.82249866       -1.09282753        1.44760665
 C           -2.07979792        0.27180053        1.61726675
 C           -2.07321045       -1.68865301        0.20741103
 C           -0.25195073       -3.20539517        0.50136620
 C            1.14845659       -3.36816717        0.13581963
 C           -1.09758851       -2.51014418       -0.35704057
 C            2.53790233       -1.57675841       -0.77287938
 C            1.61531718       -2.68663914       -0.97570998
 C            2.25955929        0.75488059       -1.46342742
 C            2.27042506       -0.58940000       -1.79719898
 C            1.73863538        1.63488625       -2.40865444
 C            0.97924136        3.10281719       -0.57768409
 C            1.29801563        2.93982274       -1.97403379
 C           -1.18504377        2.64505174        0.47713094
 C           -0.44591351        3.36555307       -0.46748175
 C           -2.92428846        0.92411529        0.73373680
 C           -2.45685664        2.16457399        0.13701629
 C           -3.06017926       -1.15703981       -0.61455782
 C           -3.59254095        0.15139335       -0.29284075
 C           -2.85733835       -1.20785676       -2.04908758
 C           -0.69777849       -2.28921965       -1.68071404
 C            0.65804284       -2.26976853       -1.98077635
 C            1.20833883       -1.10424009       -2.64806698
 C           -1.55331558       -1.60961148       -2.53941250
 C            0.75413894        1.13055485       -3.35877032
 C            0.34321108       -0.19899363       -3.25878853
 C           -1.01859908       -0.51719346       -3.34407057
 C            0.12521603        3.30896145       -2.74659578
 C           -0.96533292        3.53384933       -1.81349385
 C           -0.23334802        2.17274009       -3.57518978
 C           -2.91229743        2.18726097       -1.24982035
 C           -3.61785341        0.94488849       -1.50987492
 C           -3.16458959        0.10232938       -2.59855372
 C           -2.02666719        0.53723792       -3.38908233
 C           -2.08377824        2.71558806       -2.23185826
 C           -1.62748813        1.86692998       -3.33139097
