58
Modified xyz file
 C            1.30419709        0.12663796        4.37618933
 C            0.47141792       -1.01521932        4.05626684
 C            1.32100914       -1.97425570        3.38734910
 C            2.49830592        0.03891668        3.54741380
 C            2.51932337       -1.27398621        2.94585809
 C            2.50158679        1.19434676        2.67590173
 C            0.58456983        1.31916159        3.97308368
 C            1.49471618        2.11801271        3.18114029
 C           -0.71127590       -0.53704034        3.35172245
 C           -0.66688263        0.91475448        3.35554532
 C           -1.12886894       -1.20287918        2.19747169
 C            0.78067097       -2.64275527        2.22883116
 C           -0.55413678       -2.44471726        1.89491882
 C            2.57029216       -1.38007590        1.49572445
 C            1.74909255       -2.51752932        1.15457800
 C            2.63471229        1.03248489        1.29314326
 C            2.47076277       -0.23632592        0.71088831
 C            2.45965161        2.16562556        0.50929408
 C            0.93704484        3.01036513        2.28147260
 C            1.66191758        3.25269615        1.05062612
 C           -1.08781577        1.60377862        2.22403645
 C           -0.45626297        2.81074751        1.90217577
 C           -1.77361748       -0.47574424        1.18276462
 C           -1.80814683        0.92458097        1.23959737
 C           -2.27248647       -1.15402280        0.05979908
 C           -0.96400013       -3.08901450        0.74069436
 C           -2.05484663       -2.52768070       -0.02231181
 C            1.24792347       -2.63736719       -0.13399308
 C            0.07602415       -3.37666922       -0.23059280
 C            1.98832117       -0.35941862       -0.60177086
 C            1.43707480       -1.58267996       -1.04371160
 C            2.11136844        2.02255025       -0.88823333
 C            2.01493907        0.75521234       -1.44954885
 C            0.69336475        3.64152909        0.04320855
 C           -0.62930004        3.38674247        0.57724266
 C            1.07143677        2.99433428       -1.19665477
 C           -2.28931370        1.64687456        0.15438622
 C           -1.57968766        2.84195379       -0.27024505
 C           -2.70886033       -0.43962301       -1.06967853
 C           -2.71717244        0.94979673       -1.04132690
 C           -2.83067229       -1.06755684       -2.31283607
 C           -1.96735457       -3.17001879       -1.31840286
 C           -0.56423994       -3.50815344       -1.51323974
 C           -2.39119075       -2.43444722       -2.48455975
 C            0.83508095       -1.66321899       -2.31328129
 C           -0.08214194       -2.68305013       -2.59385963
 C           -1.25810181       -2.39390307       -3.39541403
 C            1.42774341        0.67801406       -2.70602121
 C            0.94360676       -0.59256912       -3.19564938
 C            0.07985308        2.61646908       -2.09416306
 C           -1.25807745        2.66637840       -1.68087077
 C           -2.21375802        1.69407015       -2.19055899
 C            0.44843408        1.69405229       -3.06727302
 C           -2.39721759       -0.35548302       -3.50339580
 C           -1.32444709       -1.13552571       -4.10641738
 C           -0.14135559       -0.30250730       -4.12456290
 C           -1.92970221        1.01212067       -3.36555293
 C           -0.57350794        1.06123113       -3.87719784
