58
Modified xyz file
 C            1.50716733        0.05923637        4.19252594
 C            0.71430279       -1.15691517        4.15786531
 C            1.46676887       -2.14887268        3.41533257
 C            2.61390290       -0.10566578        3.26379503
 C            2.64920622       -1.49420414        2.87248037
 C            2.48312923        0.90192221        2.22361635
 C            0.67715567        1.13912500        3.69487714
 C            1.38267815        1.77199007        2.59940167
 C           -0.62179295       -0.81012949        3.70422103
 C           -0.64906436        0.61653591        3.42456073
 C           -1.28959380       -1.66967504        2.84504337
 C            0.81078132       -2.85844179        2.32790009
 C           -0.55725215       -2.72698421        2.15066990
 C            2.70545488       -1.79773229        1.46082011
 C            1.67721583       -2.78078100        1.16717003
 C            2.62113405        0.54722613        0.87491571
 C            2.92059910       -0.78240821        0.53121320
 C            2.08920959        1.41701747       -0.09317451
 C            0.62719794        2.31588342        1.57610344
 C            1.22637497        2.43830126        0.33091972
 C           -1.30678160        1.08513760        2.28710265
 C           -0.76210590        2.18514665        1.62588619
 C           -2.23455673       -1.11194640        1.89643589
 C           -2.19393253        0.25012441        1.59546334
 C           -1.09956115       -2.81897463        0.80709494
 C           -2.34205214       -2.06950773        0.81358837
 C            1.14292134       -2.78637537       -0.12103377
 C           -0.25137425       -2.72470720       -0.29968476
 C            2.83534206       -1.16606534       -0.79995806
 C            1.97788949       -2.29751072       -1.12022596
 C            2.20302559        1.10304890       -1.45534567
 C            2.62767272       -0.16616731       -1.82355976
 C            1.55347787        1.88070521       -2.41345329
 C            0.60534101        3.27122583       -0.59029402
 C            0.83086175        3.06308220       -2.00179416
 C           -1.51183132        2.79120258        0.62683728
 C           -0.80800008        3.54149780       -0.40114582
 C           -2.76093097        0.69209229        0.39302630
 C           -2.54580321        2.00741164       -0.02472751
 C           -2.85614962       -1.63695660       -0.39247691
 C           -3.25748081       -0.24670734       -0.51471729
 C           -0.80050894       -2.35105640       -1.53848851
 C           -2.14180722       -1.97293220       -1.61011603
 C            1.45834744       -2.10021193       -2.45200318
 C            1.97426205       -0.83109264       -2.93958275
 C            0.02610959       -2.09248039       -2.63148710
 C            0.77070915        1.22737446       -3.45380125
 C            0.89335358       -0.14545268       -3.62474977
 C           -0.28921947       -0.99075314       -3.53066821
 C           -0.46416165        3.05472877       -2.66798611
 C           -1.48135729        3.31749338       -1.66756560
 C           -2.52309946        2.33165634       -1.44726118
 C           -0.54815250        1.83865847       -3.45850231
 C           -3.26681816        0.05982177       -1.93494036
 C           -2.55771925       -1.01160469       -2.61869777
 C           -1.55205721       -0.41218860       -3.47717394
 C           -2.71626831        1.32278282       -2.38253743
 C           -1.68215942        1.03407214       -3.37171366
