58
Modified xyz file
 C            1.34495673       -0.05508490        3.67750001
 C            2.58381175       -0.38577760        3.01838809
 C            2.52637981       -1.78558291        2.62646121
 C            0.48730652       -1.22964945        3.64506578
 C            1.22687951       -2.31098392        3.01907476
 C           -0.79327740       -0.83324853        3.07986031
 C            0.57790170        1.06050355        3.16607276
 C           -0.78841696        0.60741109        2.95345118
 C            1.13600194        1.93943156        2.23604914
 C            2.96635401        0.38766475        1.85479094
 C            2.31661700        1.58696391        1.55349885
 C            2.94626641       -1.88259481        1.23464401
 C            3.23410449       -0.53952631        0.76693034
 C            2.29152792       -2.76627573        0.38969880
 C            0.55550609       -3.15952487        2.14868970
 C            1.22835649       -3.59099733        0.93453388
 C           -1.34813474       -1.59086983        2.06102365
 C           -0.82250895       -2.85732496        1.78876294
 C           -2.19894512       -0.98013644        1.13757550
 C           -1.52682855        1.21686855        1.94481893
 C           -2.19124952        0.42191709        0.99152511
 C            0.25848876        2.86359310        1.67146331
 C           -1.15290706        2.51628402        1.61658423
 C            0.59283808        3.54572171        0.43478175
 C            2.57602921        2.12529024        0.29202460
 C            1.72719603        3.16371811       -0.26024906
 C            2.88219714       -0.15255220       -0.52257473
 C            2.92301175        1.21157298       -0.78616544
 C            1.86934565       -2.30837369       -0.92615609
 C            2.03144730       -0.97303351       -1.27937998
 C            0.22043041       -3.75709343       -0.09628780
 C           -1.07507173       -3.48122242        0.49969727
 C            0.62436774       -2.98013533       -1.25801694
 C           -2.79123307       -1.78803995        0.17129883
 C           -2.05261530       -2.93708522       -0.31463697
 C           -3.40813225       -1.18598347       -0.98958768
 C           -2.80594439        1.03004936       -0.12354658
 C           -3.37705863        0.25001639       -1.12494082
 C           -1.72682438        3.15525029        0.45858268
 C           -0.64772728        3.78467496       -0.28764539
 C           -2.48933405        2.34488703       -0.45963437
 C           -0.76704351        3.36779455       -1.67653850
 C           -2.01554603        2.63522553       -1.80495622
 C            1.65592767        2.96021677       -1.69984864
 C            2.34012822        1.71473991       -2.00949383
 C            0.36050200        2.92648993       -2.35998605
 C            1.16418047       -0.41508070       -2.22659323
 C            1.41251869        0.86388574       -2.72028450
 C            0.29843865        1.69650291       -3.13724030
 C           -0.35933638       -2.28874081       -1.95999620
 C           -1.69166970       -2.60353355       -1.67905156
 C           -2.75663310       -1.75124275       -2.16605784
 C           -0.04535692       -1.05046992       -2.53685682
 C           -3.03174625        0.53788432       -2.50710302
 C           -2.13384229        1.64858479       -2.77517848
 C           -0.92673508        1.09128446       -3.37378665
 C           -2.41732410       -0.65981495       -3.05016455
 C           -1.01757540       -0.35444814       -3.26089031
