58
Modified xyz file
 C            1.17580398       -0.12052735        4.25793389
 C            2.34648177       -0.40229908        3.45000637
 C            2.14168293       -1.70568160        2.83209966
 C            0.32746209       -1.29910436        4.19902324
 C            0.76641285       -2.07889778        3.05307710
 C           -1.04442732       -0.84648567        4.24659027
 C            0.34504732        1.02417670        3.92837237
 C           -1.03788045        0.59884323        4.04635462
 C            0.70528701        1.86051263        2.87688979
 C            2.72353910        0.52167217        2.39382540
 C            1.95837714        1.65286929        2.15809848
 C            2.60171769       -1.61744377        1.47226910
 C            3.13994011       -0.28509851        1.26603949
 C            1.82125297       -2.15013740        0.45451182
 C           -0.08547714       -2.23917134        1.95325911
 C            0.42811394       -2.20668037        0.64162417
 C           -1.97612907       -1.41053033        3.29361650
 C           -1.45827935       -2.16234925        2.15793400
 C           -1.96827714        0.89746945        2.96844844
 C           -2.73831899       -0.30425913        2.75004390
 C           -0.29871761        2.26800566        1.90488748
 C           -1.53260093        1.61864245        1.85463278
 C            1.76131615        2.09526567        0.78766735
 C            0.39683796        2.57647933        0.66920675
 C            3.06792200        0.21775763       -0.02821432
 C            2.31121045        1.37852829       -0.27695643
 C            2.32396523       -1.94952215       -0.82176326
 C            3.12483032       -0.75116604       -1.02336931
 C            1.44175627       -2.05040207       -1.95788785
 C           -0.44495856       -2.03792510       -0.46028071
 C            0.07854391       -1.86597728       -1.75503919
 C           -2.31967940       -1.85319153        1.04124139
 C           -3.05300846       -0.64574675        1.38866959
 C           -1.83097919       -1.94327567       -0.25868392
 C           -2.15900002        1.42955512        0.61079587
 C           -3.05804365        0.35920754        0.44064859
 C           -0.26020420        2.39303688       -0.53462465
 C           -1.61622833        2.05730849       -0.52331703
 C            1.78219373        1.59618344       -1.55893510
 C            0.50099141        2.16088468       -1.68058743
 C            2.96932768       -0.34946669       -2.39835588
 C            2.11378135       -1.34038159       -3.02994950
 C            2.36291382        0.93482672       -2.64334086
 C            1.31158568       -0.63779446       -4.00195005
 C            1.62793124        0.78090210       -3.88173658
 C           -0.71636371       -1.33363344       -2.78609205
 C           -0.12683157       -0.74425122       -3.91154987
 C           -2.60471675       -1.31336320       -1.23156905
 C           -3.29352145       -0.09027931       -0.84564261
 C           -2.06831704       -1.10668257       -2.55773949
 C           -2.29826607        1.97379463       -1.73659386
 C           -3.17994470        0.84764875       -1.93308349
 C           -2.68674667        0.10640617       -3.07549157
 C           -0.11943814        2.26604175       -2.92350014
 C            0.39181427        1.51129175       -4.04864542
 C           -0.62782128        0.53395826       -4.38437823
 C           -1.56482406        2.15535816       -2.98010964
 C           -1.87903913        1.02509808       -3.84838003
