58
Modified xyz file
 C            1.45353993       -0.03538481        4.13610051
 C            0.64455668       -1.21564584        3.88529437
 C            1.47612658       -2.16227018        3.18515610
 C            2.62251170       -0.11923643        3.27690732
 C            2.69801830       -1.47163816        2.78402065
 C            2.54088517        0.96073961        2.31515701
 C            0.68321212        1.12096768        3.71632218
 C            1.45515425        1.83950375        2.72550144
 C           -0.58766703       -0.78283700        3.25663496
 C           -0.63342552        0.66681143        3.32732723
 C           -1.04157595       -1.40001548        2.08911484
 C            0.94985101       -2.79930464        1.99456847
 C           -0.30326501       -2.43886199        1.48964726
 C            2.84667837       -1.68407681        1.35728423
 C            2.06258851       -2.86757593        1.07182096
 C            2.72137781        0.71338596        0.95189432
 C            2.77078427       -0.60542213        0.46717924
 C            2.39135692        1.74681626        0.08394279
 C            0.76287546        2.52408834        1.73313579
 C            1.42612707        2.73936397        0.52956132
 C           -1.26519490        1.33914902        2.29209655
 C           -0.63462182        2.45205755        1.72190787
 C           -2.02323498       -0.73739582        1.34900150
 C           -2.20005311        0.63808462        1.53404348
 C           -2.56211012       -1.36272132        0.23208972
 C           -0.61425936       -2.84554083        0.18511435
 C           -1.80082334       -2.41723922       -0.40763627
 C            1.78063199       -3.14366733       -0.24851547
 C            0.39699065       -3.38830642       -0.61145037
 C            2.47323479       -0.88290009       -0.87787440
 C            2.27474759       -2.21855062       -1.24654094
 C            2.12383695        1.46425401       -1.31049597
 C            2.13897875        0.15407253       -1.76383745
 C            0.67889442        3.19646554       -0.62844646
 C            1.06567150        2.36191402       -1.76082393
 C           -1.33287978        3.18228598        0.76283951
 C           -0.64941299        3.56086935       -0.46653706
 C           -3.02786145        1.36120010        0.68089298
 C           -2.66981980        2.74032130        0.40340791
 C           -3.18751603       -0.56836109       -0.81213127
 C           -3.48584923        0.76093052       -0.56176742
 C           -1.86633302       -2.19664713       -1.84894947
 C           -2.55473858       -0.93224230       -2.07346503
 C            0.33700327       -3.23839348       -2.05579012
 C            1.55398737       -2.54541645       -2.46053822
 C           -0.78850406       -2.54455912       -2.65025630
 C            1.48094887       -0.11399486       -2.96333104
 C            1.18033631       -1.47622123       -3.35179390
 C           -0.25504056       -1.56118747       -3.57191672
 C            0.10456022        1.89881534       -2.66580169
 C           -1.98003077        0.05521041       -2.88435300
 C            0.33524688        0.69895040       -3.33415696
 C           -0.78232044       -0.20901859       -3.54029412
 C           -1.56196359        3.34151745       -1.56971499
 C           -2.85411822        2.97725196       -1.01611859
 C           -3.25972022        1.72168435       -1.62221558
 C           -1.21049706        2.35721808       -2.57704797
 C           -2.29787676        1.39070324       -2.65616418
