58
Modified xyz file
 C            1.46640659       -0.20510394        4.43068139
 C            0.60508566       -1.36996791        4.33319650
 C            1.20752243       -2.28609528        3.38322828
 C            2.56815321       -0.38247435        3.49919452
 C            2.44721543       -1.69887947        2.90584134
 C            2.60342993        0.77659708        2.62316089
 C            0.70302502        0.94507296        3.98396422
 C            1.50252162        1.65437916        3.00224532
 C           -0.66643718       -0.94104461        3.77385360
 C           -0.61108739        0.49100951        3.57277476
 C            0.19031227       -2.64105116        2.40833637
 C           -0.95588888       -1.77649988        2.62480887
 C            0.57488244       -2.87891330        1.09598840
 C            2.76342302       -1.85001158        1.56434154
 C            1.91096050       -2.68427159        0.73545723
 C            2.89135394        0.60719489        1.26691332
 C            3.10451194       -0.67817186        0.76293261
 C            2.53471144        1.62902622        0.38865779
 C            0.83857329        2.33996797        1.99108619
 C            1.55826344        2.60723281        0.83202667
 C           -1.11870309        1.01011244        2.38986687
 C           -0.54688100        2.17821535        1.89011490
 C           -1.55463162       -1.19811030        1.50824739
 C           -1.81429507        0.17455156        1.50607124
 C           -0.39254100       -2.77025612        0.10138907
 C           -1.44177819       -1.85540753        0.28598168
 C           -0.00418312       -3.10840270       -1.18812792
 C            2.22527118       -2.34161681       -0.64224933
 C            2.74556702       -0.98305212       -0.61896205
 C            1.31047974       -2.67807390       -1.62352456
 C            2.24095304        1.32279532       -1.00509620
 C            2.14836866        0.00007947       -1.40945318
 C            0.85852399        3.10207694       -0.33770095
 C            1.26187475        2.28246987       -1.47527454
 C           -1.23277702        2.84107946        0.88263496
 C           -0.47660205        3.44701302       -0.20225255
 C           -2.39781974        0.75423930        0.37590945
 C           -2.34824521        2.14704469        0.27077693
 C           -2.13059786       -1.34367752       -0.81695825
 C           -2.62003460       -0.02830050       -0.76958975
 C           -0.91483255       -2.86236954       -2.28450765
 C           -2.07093691       -2.03577523       -2.02885359
 C            1.06587080       -1.72381109       -2.68334592
 C            1.23534913       -0.36389423       -2.40734824
 C           -0.14761748       -2.18718949       -3.32142012
 C            0.30535300        1.89227792       -2.40966934
 C            0.32405845        0.58248631       -2.91748912
 C           -1.31705989        3.41149044       -1.38402486
 C           -2.57810979        2.79472915       -1.00249666
 C           -0.83938848        2.68455192       -2.54313674
 C           -3.16370786        0.56136255       -1.91819615
 C           -3.01526136        1.98745228       -2.11785916
 C           -2.02629268        2.14809400       -3.17461616
 C           -2.31471348       -1.33806544       -3.27308074
 C           -1.02034235       -1.21265919       -3.92777522
 C           -0.65859982        0.18469523       -3.83393677
 C           -2.88430830       -0.01372643       -3.21721212
 C           -1.92834796        0.87957527       -3.85552445
