58
Modified xyz file
 C            1.42970621        0.00965081        4.48591528
 C            0.63012970       -1.20012249        4.50027413
 C            1.20228724       -2.11121627        3.52884320
 C            2.41246733       -0.11338030        3.42040221
 C            2.22355051       -1.39584190        2.78031692
 C            2.31763992        1.07566032        2.60457561
 C            0.55299979        1.10635803        4.12546259
 C            1.26489202        1.91562692        3.15913145
 C           -0.70370897       -0.86275598        4.02840241
 C           -0.72911251        0.55133768        3.72357601
 C            0.09951650       -2.68224556        2.78279944
 C           -1.03865967       -1.79444987        2.97453475
 C            0.36314776       -3.10648483        1.49025114
 C            2.18460636       -1.46735585        1.38794033
 C            1.53849179       -2.56227557        0.82371340
 C            2.40164195        0.95955168        1.21987244
 C            2.35388641       -0.30857177        0.61276879
 C            2.05908368        2.07928236        0.46633895
 C            0.50309017        2.64870097        2.26457012
 C            1.07033049        2.92930391        0.96125262
 C           -1.28010083        0.98031465        2.51574720
 C           -0.86769084        2.21506839        2.01961432
 C           -1.70251060       -1.32960122        1.84374849
 C           -1.84855319        0.05252415        1.63122723
 C           -0.71385314       -3.05246639        0.51834876
 C           -1.77896353       -2.18923468        0.74898245
 C            1.27358313       -2.57671216       -0.59948539
 C           -0.08897851       -3.05289040       -0.79110897
 C            2.26653335       -0.39156069       -0.78761072
 C            1.73165730       -1.53667473       -1.39566708
 C            2.29176774        2.05543159       -0.90071981
 C            2.46366818        0.76554086       -1.54268237
 C            1.44783034        2.86795341       -1.76034754
 C           -0.04890070        3.28140447        0.10787171
 C           -1.20463170        2.59084451        0.65580154
 C            0.14590817        3.27569524       -1.26288306
 C           -2.36383975        0.49496399        0.40655420
 C           -1.90296270        1.69723445       -0.14885281
 C           -2.56356481       -1.81608724       -0.33117818
 C           -3.00194224       -0.43739127       -0.40491239
 C           -0.81184362       -2.57933007       -1.88151903
 C           -2.14005655       -2.19430506       -1.67055125
 C            1.22052927       -1.46847248       -2.69035482
 C           -0.08702713       -2.05172570       -2.95176740
 C            1.92117303        0.86556003       -2.88959285
 C            1.24797851        2.14785008       -3.00388497
 C            1.33056208       -0.24716202       -3.46588991
 C           -0.85360909        2.64829495       -2.11021318
 C           -1.86271334        1.87138738       -1.53889472
 C           -0.17324269        2.17038537       -3.30536441
 C           -3.23783757       -0.13160898       -1.80261183
 C           -2.80703155       -1.28169373       -2.58487707
 C           -2.61071078        1.04224287       -2.36728758
 C           -0.74111953       -1.24949689       -3.97121076
 C            0.09246766       -0.08445926       -4.21887378
 C           -0.72147376        1.10396841       -4.00588766
 C           -2.09447930       -0.78893956       -3.74545901
 C           -2.06200798        0.66237541       -3.65914915
