58
Modified xyz file
 C            1.65136557        0.06106441        4.80512374
 C            0.79197419       -1.09718447        4.96046120
 C            1.39704448       -2.17767049        4.21009933
 C            2.63394449       -0.23562928        3.77042876
 C            2.49178157       -1.62510408        3.42044296
 C            2.48444911        0.75994994        2.72218212
 C            0.82735088        1.13864608        4.30299810
 C            1.57365314        1.77186690        3.23561143
 C           -0.49298412       -0.79093235        4.34186905
 C           -0.48622667        0.60306886        3.97158556
 C            0.39997311       -2.65935898        3.27561036
 C           -0.74157584       -1.76559490        3.30380405
 C            2.23790702       -1.95962462        2.03367532
 C            1.06815497       -2.81462068        2.00852212
 C            2.37753147        0.37330557        1.37467504
 C            2.34611686       -0.98838360        1.02566132
 C            1.92417599        1.32785977        0.45359502
 C            0.83753937        2.47798963        2.30965334
 C            1.29101825        2.46672854        0.93812396
 C           -1.04200916        0.98643264        2.75314564
 C           -0.58619068        2.18913134        2.23327538
 C           -1.24698450       -1.34072948        2.07373285
 C           -1.53720301        0.01383532        1.85943468
 C            0.30232130       -2.71782229        0.87087074
 C           -0.96330304       -2.13019867        0.96351985
 C            1.85572345       -1.34929612       -0.23927266
 C            1.00050328       -2.45255061       -0.28681882
 C            1.69071840        0.96978748       -0.87673237
 C            1.74925204       -0.37840460       -1.24281718
 C            1.05386785        1.88988735       -1.72563283
 C            0.17635409        2.99351358        0.19073235
 C           -1.01278373        2.57833873        0.91671312
 C            0.14922987        2.80988852       -1.17689044
 C           -1.96508242        0.41382645        0.57408340
 C           -1.92174356        1.77804648        0.24177183
 C           -1.60409714       -1.85037427       -0.24058812
 C           -2.09237012       -0.55015399       -0.45146988
 C            0.30362039       -2.70514982       -1.44579314
 C           -1.13332214       -2.56733142       -1.33665229
 C            1.30111083       -0.76541280       -2.51404817
 C            0.68019138       -2.00744411       -2.64764931
 C            0.96590557        1.59176795       -3.08511259
 C            1.11415894        0.20860515       -3.49687362
 C           -0.11751803        2.17161379       -3.86878672
 C           -1.11637411        2.89533365       -1.73984801
 C           -2.17881593        2.16892485       -1.06531895
 C           -1.26351632        2.69021286       -3.15862959
 C           -2.46825847       -0.14976780       -1.75132617
 C           -2.66859976        1.20148189       -2.01536623
 C           -2.35610795        1.74687894       -3.33277188
 C           -1.63076735       -2.26360555       -2.65340627
 C           -0.46764271       -2.16279508       -3.52391438
 C           -2.38470667       -1.04865778       -2.82222218
 C            0.18494084       -0.03192847       -4.59638234
 C           -0.61006170        1.16561278       -4.78925419
 C           -1.98053966        0.84945385       -4.40402610
 C           -0.74616286       -1.13408525       -4.49651161
 C           -2.04693103       -0.57324175       -4.15728659
