58
Modified xyz file
 C            1.45699710        0.10788590        3.97773560
 C            0.65569279       -1.09311192        3.85805886
 C            1.24867628       -1.93256862        2.83244568
 C            2.50078836        0.04386016        2.96940913
 C            2.32223045       -1.16856777        2.20854022
 C            2.47978764        1.29004786        2.25190758
 C            0.60059570        1.23522303        3.64775001
 C            1.29646034        2.02659631        2.66795272
 C           -0.72185462       -0.68270029        3.68451094
 C           -0.69953767        0.71878500        3.29130133
 C           -1.55673368       -1.54020133        2.99291741
 C            0.40163155       -2.68434083        2.02097789
 C           -0.96850550       -2.68131624        2.30276636
 C            0.84878823       -3.02093917        0.74264838
 C            2.39349469       -1.12001392        0.81732686
 C            1.89571525       -2.21775568        0.12644746
 C            2.76832490        1.29503247        0.89378189
 C            2.55649458        0.11241287        0.15083888
 C            2.54761477        2.51789360        0.27556734
 C            0.57201112        2.65385159        1.66397598
 C            1.36022040        3.24962517        0.68851851
 C           -1.27002544        1.09522868        2.07212674
 C           -0.67646208        2.10994740        1.28862974
 C           -2.52295216       -0.96940182        2.07796579
 C           -2.28971552        0.29699167        1.54249516
 C           -1.92425108       -3.09060799        1.28682204
 C           -2.93615807       -2.04711224        1.19675722
 C           -0.09038899       -3.41063452       -0.30046065
 C           -1.45688835       -3.37024297       -0.05544494
 C            1.60906559       -2.11467427       -1.28724714
 C            0.42791927       -2.92212076       -1.56735732
 C            2.35018141        0.18166813       -1.24506104
 C            1.78207856       -0.89717564       -1.93124212
 C            2.65285907        2.61107111       -1.15647236
 C            2.48945683        1.39725923       -1.92072487
 C            0.73407036        3.78044582       -0.49232895
 C            1.64650544        3.56116658       -1.60123787
 C           -1.25724337        2.46319166        0.05270356
 C           -0.55823831        3.25395513       -0.85777009
 C           -2.86689717        0.62766619        0.32410110
 C           -2.31756980        1.71908601       -0.44944709
 C           -3.15767791       -1.75527473       -0.20665539
 C           -2.33640623       -2.67308635       -0.98233967
 C           -3.26096714       -0.42711884       -0.60199632
 C           -0.45564125       -2.51640649       -2.56017228
 C           -1.85182129       -2.27826262       -2.22472545
 C            1.13031138       -0.67699891       -3.14434958
 C           -0.03966208       -1.47091648       -3.47542571
 C            1.58808095        1.70677943       -3.02117608
 C            0.89767790        2.92955456       -2.66854320
 C           -0.48940402        2.83021684       -2.25101363
 C            0.82898136        0.67984634       -3.55015778
 C           -2.29253461        1.31423485       -1.84814892
 C           -2.82696778       -0.03821969       -1.93345260
 C           -2.21858043       -0.97488630       -2.75900354
 C           -1.15397025       -0.54847697       -3.64394004
 C           -1.22225536        1.71424030       -2.64934230
 C           -0.62340211        0.79936948       -3.52174346
