58
Modified xyz file
 C            1.24594050       -0.15722870        4.10972725
 C            2.45537097       -0.38574085        3.34178100
 C            2.28322011       -1.62757835        2.60020131
 C            0.38854533       -1.31741842        3.93158429
 C            0.93459743       -2.10688926        2.84068940
 C           -0.97432149       -0.84295979        3.82399220
 C            0.44668402        1.02745124        3.84255247
 C           -0.94128139        0.60969828        3.75296977
 C            0.91417006        1.99142682        2.95650176
 C            2.89986618        0.62764906        2.40124635
 C            2.21225878        1.83462819        2.31029813
 C            2.70079168       -1.38582579        1.23098335
 C            3.29704064       -0.06257473        1.18571312
 C            1.86946257       -1.78932818        0.18913407
 C            0.12709079       -2.41674914        1.74581385
 C            0.71997393       -2.52459090        0.48051238
 C           -1.77520628       -1.30963150        2.71200900
 C           -1.26535837       -2.27525387        1.85194047
 C           -1.73304457        1.01526731        2.59946190
 C           -2.43252523       -0.15868129        2.11902413
 C            0.00396900        2.55283245        1.97093922
 C           -1.19120050        1.89503292        1.67231709
 C            2.15274482        2.53115172        1.03277944
 C            0.81715132        3.09549151        0.89643466
 C            3.29562494        0.62117352       -0.02100344
 C            2.78751176        1.98504056       -0.07825977
 C            2.01371491       -1.19828496       -1.07046489
 C            2.81289814       -0.06313539       -1.20660517
 C            1.16203392       -1.56445853       -2.11732191
 C           -0.01084641       -3.06659968       -0.56738442
 C            0.21328370       -2.56545481       -1.91334158
 C           -2.05122701       -2.57477283        0.74621523
 C           -1.43659925       -3.22976883       -0.38796223
 C           -2.78477131       -0.23963712        0.77521802
 C           -2.90651100       -1.51720844        0.22795961
 C           -1.65755715        1.87077103        0.35624493
 C           -2.50511450        0.83773772       -0.07300999
 C            0.25180066        3.23404854       -0.36269576
 C           -1.09963757        2.74907715       -0.57156233
 C            2.22083524        2.18681571       -1.40475864
 C            2.43380175        0.96064524       -2.16058388
 C            1.02422079        2.88319533       -1.54456611
 C            1.06271615       -0.74448002       -3.24256646
 C            1.55793620        0.61965207       -3.18017534
 C           -0.17841303       -0.71207016       -3.99578866
 C           -1.07928557       -2.49338665       -2.58637373
 C           -2.10130728       -2.75766146       -1.58977744
 C           -3.00849255       -1.68593872       -1.21086176
 C           -1.30616822       -1.49057618       -3.52050640
 C           -2.86851429        0.74905784       -1.41926292
 C           -3.08741849       -0.55941710       -2.01720305
 C           -2.41838150       -0.57498728       -3.30922858
 C           -1.25333155        2.49903530       -1.99111895
 C            0.08186105        2.49051810       -2.58173346
 C            0.43830631        1.49553885       -3.48708512
 C           -0.59766405        0.67835998       -4.09551587
 C           -2.20836554        1.58462078       -2.41018457
 C           -1.95287953        0.77237173       -3.58734201
