58
Modified xyz file
 C            1.28159863        0.13054790        3.93937469
 C            2.48214695       -0.04640888        3.15007679
 C            2.42009199       -1.36014913        2.52561382
 C            0.43367823       -1.03117785        3.72295631
 C            1.09621009       -1.89946041        2.76362205
 C           -0.90617976       -0.55844714        3.41563277
 C            0.47637787        1.31389454        3.71828700
 C           -0.90208965        0.88683719        3.53537791
 C            0.80319357        2.20171777        2.61454139
 C            2.78800683        0.90715076        2.09756973
 C            1.87328401        1.91052108        1.76360780
 C            2.87152812       -1.20961773        1.15310451
 C            3.40295228        0.13660078        1.03382014
 C            2.08381212       -1.71992722        0.12146849
 C            0.35959657       -2.37032651        1.68293973
 C            0.98137426       -2.51520039        0.43882471
 C           -1.57948928       -1.12940858        2.34264793
 C           -1.02791080       -2.25485154        1.73382007
 C           -2.47318256       -0.34588037        1.61344986
 C           -1.46811604        1.67153952        2.45030559
 C           -0.45907953        2.63625104        2.04520485
 C           -2.22114575        1.02457287        1.47149865
 C           -0.47254001        3.10688223        0.74432637
 C            1.88354739        2.43360477        0.46601100
 C            0.76940019        3.12910377       -0.00959759
 C            3.47510107        0.70042574       -0.22527609
 C            2.85689519        1.99749435       -0.43337464
 C            2.20628721       -1.17624808       -1.16462502
 C            3.09056242       -0.11205734       -1.36289395
 C            1.30415841       -1.54375126       -2.17608646
 C            0.27190451       -3.11172186       -0.59453255
 C            0.36536525       -2.53846957       -1.92389050
 C           -1.78855741       -2.94725809        0.80035229
 C           -1.11633170       -3.48208663       -0.36848558
 C           -3.32741926       -0.98418714        0.72058418
 C           -3.04448629       -2.36378823        0.36097265
 C           -3.71655359       -0.28964326       -0.48833481
 C           -2.38663756        1.64036854        0.22440453
 C           -1.52267138        2.66239946       -0.15784567
 C           -3.09337603        0.98650971       -0.77767254
 C            0.41575935        3.06865896       -1.42075680
 C           -0.98080009        2.65930476       -1.50904543
 C            2.62745805        2.12270457       -1.86449398
 C            2.87431879        0.81521825       -2.45605898
 C            1.33745741        2.58858080       -2.33897864
 C            1.02077167       -0.65859121       -3.21535008
 C            1.80966813        0.54344009       -3.39265659
 C            0.89186669        1.67295224       -3.37103571
 C           -2.50834691        0.90485011       -2.10790772
 C           -1.37676284        1.66107837       -2.40318910
 C           -0.36413697       -0.30378553       -3.46845941
 C           -0.45945077        1.13984789       -3.31244288
 C           -0.99229423       -2.35382723       -2.41833663
 C           -1.88260726       -3.09514573       -1.54179780
 C           -3.10996257       -2.47534067       -1.08788286
 C           -3.46491693       -1.17496361       -1.61529823
 C           -1.36462889       -1.10886002       -2.93372796
 C           -2.54469918       -0.49247687       -2.51036163
