58
Modified xyz file
 C            1.26842572       -0.00105547        3.71045446
 C            2.50209317       -0.30034483        3.02383852
 C            2.42208944       -1.67642461        2.56482017
 C            0.41412770       -1.17733631        3.60955390
 C            1.03482375       -2.08660869        2.67572100
 C           -0.91979165       -0.70992192        3.32595942
 C            0.48029127        1.13246807        3.26592981
 C           -0.90052944        0.73818979        3.45238522
 C            0.83384022        1.81854786        2.10139922
 C            2.87267847        0.51013280        1.88489928
 C            2.09586421        1.60400097        1.51021115
 C            3.05204059       -1.74767528        1.26136978
 C            3.36660856       -0.38297122        0.84819240
 C            2.50799230       -2.61528860        0.33019065
 C            0.35377564       -2.46241027        1.51696032
 C            1.10551536       -2.99668164        0.47068084
 C           -1.63509129       -1.27190323        2.27419214
 C           -0.94334698       -1.97607147        1.26721027
 C           -2.86798916       -0.68957152        1.99879167
 C           -1.88862130        1.45716972        2.80222451
 C           -3.03749788        0.72219393        2.29937365
 C           -0.14894689        2.58244548        1.44719634
 C           -1.49537085        2.40431644        1.76950130
 C            0.13346081        3.19227085        0.22944991
 C            2.39309993        2.17725505        0.28054701
 C            1.46966092        3.11638082       -0.31045096
 C            3.22872461       -0.00261983       -0.49123871
 C            2.91138415        1.32423396       -0.78008964
 C            2.75092332       -2.34398012       -1.06913075
 C            3.02437990       -0.97595696       -1.47086025
 C            0.53390261       -3.07970981       -0.85741675
 C            1.59405673       -2.80421426       -1.81168372
 C           -1.51797203       -2.15151723       -0.00754909
 C           -0.72460545       -2.54387188       -1.08840335
 C           -3.51939808       -0.94291269        0.73691586
 C           -2.80127704       -1.68257015       -0.27534768
 C           -3.49154464        1.37733846        1.08646545
 C           -2.46116748        2.31171641        0.68383317
 C           -3.88700204        0.34521000        0.15942771
 C           -0.80669134        3.02322650       -0.86919378
 C           -1.99267905        2.32816134       -0.63096406
 C            1.36597538        2.81380293       -1.72847654
 C            2.17926929        1.64044387       -1.99704752
 C           -0.04115783        2.78728637       -2.08092167
 C            2.17503242       -0.67839868       -2.61704801
 C            1.33635798       -1.84689738       -2.86925340
 C            1.65449790        0.60777025       -2.76865939
 C           -1.04257985       -2.10810611       -2.37885086
 C            0.02197585       -1.65950377       -3.26626285
 C           -3.04622809       -0.99995736       -1.53139002
 C           -3.34653819        0.37767248       -1.18299522
 C           -2.45382327        1.38347967       -1.56604517
 C           -2.18918017       -1.23989338       -2.59198700
 C           -0.48211989        1.83362214       -2.98037827
 C            0.43625254        0.79328197       -3.42663841
 C           -0.36256773       -0.36345806       -3.78561910
 C           -1.78201188        1.22009460       -2.77781550
 C           -1.73339126       -0.10488000       -3.37597745
