58
Modified xyz file
 C            1.56720270        0.00704603        4.24929218
 C            0.72773387       -1.17652878        4.23589083
 C            1.44071410       -2.21426832        3.51516349
 C            2.67770283       -0.23039231        3.34105757
 C            2.62437016       -1.60960363        2.91836728
 C            2.63543696        0.79517685        2.32281952
 C            0.78664035        1.11207439        3.71512095
 C            1.53411225        1.69504641        2.62904715
 C           -0.58933863       -0.78192039        3.77020165
 C           -0.54360077        0.63305760        3.42678004
 C           -1.30123074       -1.64261456        2.94348735
 C            0.74660748       -2.94370982        2.46688075
 C           -0.62163667       -2.75623962        2.28828764
 C            2.59345938       -1.89758520        1.49502633
 C            1.61991463       -2.95747571        1.30579526
 C            2.84960087        0.46640616        0.98495878
 C            2.65913916       -0.85908473        0.55749865
 C            2.62874575        1.49554973        0.08025137
 C            0.84550205        2.24280185        1.55295511
 C            1.60377053        2.47182115        0.41652030
 C           -1.17108006        1.05934154        2.25774715
 C           -0.52215638        1.96493532        1.39334251
 C           -2.22818500       -1.07209479        1.98389726
 C           -2.24430321        0.30491253        1.78291137
 C           -1.19885250       -2.91272342        0.95998011
 C           -2.26416229       -1.93759561        0.81709218
 C            1.07419399       -3.12821201        0.04400855
 C           -0.37404142       -3.17365004       -0.12161198
 C            2.24502891       -1.12173560       -0.75872349
 C            1.59300410       -2.32295030       -1.04293718
 C            2.49530438        1.20032180       -1.32952960
 C            2.24535582       -0.10827497       -1.72275175
 C            0.94842360        2.86268309       -0.80829813
 C            1.71460593        2.28645586       -1.90139748
 C           -1.18064183        2.37616455        0.22163906
 C           -0.43889783        2.85710792       -0.87376699
 C           -2.95864681        0.77716134        0.69385970
 C           -2.51182350        1.99412300        0.05480667
 C           -2.53303663       -1.35012143       -0.41822080
 C           -3.25208182       -0.16013226       -0.37784579
 C           -0.68489543       -2.57307455       -1.40920022
 C            0.58350643       -2.35065750       -2.08088090
 C           -1.68984541       -1.60699663       -1.51380490
 C            1.63460751       -0.33861723       -2.95817302
 C            0.64319191       -1.39505313       -3.07487832
 C            1.09523731        2.10408710       -3.12860054
 C            1.14451379        0.78846502       -3.74072955
 C           -1.02330508        2.99786795       -2.13476413
 C           -0.24934912        2.62772527       -3.31051042
 C           -3.12012200        1.99559203       -1.26146391
 C           -3.43165698        0.60993730       -1.58648567
 C           -2.37622701        2.54265245       -2.36969970
 C           -1.68451864       -0.74888780       -2.62638159
 C           -0.59008988       -0.76051955       -3.49617652
 C           -0.19924128        0.45561810       -4.18918204
 C           -1.02096211        1.63976096       -4.05005672
 C           -2.64725436        0.25517286       -2.74561970
 C           -2.30644336        1.51165373       -3.39299573
