58
Modified xyz file
 C            1.48241867       -0.01247785        3.94777065
 C            0.69216251       -1.22245471        3.83335913
 C            1.30803874       -2.06900944        2.82819796
 C            2.51554107       -0.05940068        2.92603911
 C            2.38682972       -1.30571517        2.21387181
 C            2.43255401        1.15959900        2.16432826
 C            0.61099305        1.10762955        3.63754071
 C            1.28137973        1.90795811        2.64654343
 C           -0.68847621       -0.83086641        3.64163417
 C           -0.69345736        0.58541743        3.30377153
 C           -1.50053605       -1.68237314        2.91482445
 C            0.48733744       -2.84197374        2.00715028
 C           -0.89609601       -2.81206517        2.21663407
 C            0.99552462       -3.24089629        0.76829256
 C            2.50021624       -1.31849799        0.82747534
 C            2.10967324       -2.49567248        0.20356052
 C            2.64009701        1.12281000        0.78674100
 C            2.50211545       -0.10354840        0.10464620
 C            2.34299583        2.30622124        0.11644127
 C            0.52681606        2.56623576        1.68987201
 C            1.27667967        3.12582721        0.66972304
 C           -1.30456999        1.00476349        2.11958626
 C           -0.75908257        2.07672073        1.38102023
 C           -2.47561061       -1.10560309        2.01132340
 C           -2.31262681        0.20644938        1.56784089
 C           -1.80113706       -3.17456555        1.13826892
 C           -2.81516459       -2.13633076        1.04654093
 C            0.10092251       -3.59335954       -0.32709278
 C           -1.26310618       -3.39117517       -0.18853796
 C            2.00399891       -2.54658551       -1.23199440
 C            0.74205728       -3.19317752       -1.56440136
 C            2.27318148       -0.10629132       -1.28877836
 C            2.06500783       -1.30635999       -1.96871407
 C            2.16946754        2.29997558       -1.31778257
 C            1.97727941        1.08440596       -1.96037936
 C            0.59660923        3.77608981       -0.41836850
 C            1.31209086        3.43372961       -1.63424976
 C           -1.40406801        2.51099017        0.20681996
 C           -0.79453411        3.45234037       -0.62574755
 C           -2.91657234        0.58143369        0.37475959
 C           -2.48193579        1.78848886       -0.29740196
 C           -2.95351850       -1.76066857       -0.34750694
 C           -1.95160348       -2.49105582       -1.10740827
 C           -3.17296834       -0.42700014       -0.64808980
 C            0.03144489       -2.30742919       -2.46826612
 C            1.01719697       -1.37016552       -2.97150418
 C           -1.23597022       -1.84038497       -2.11722967
 C            1.26459594        1.03694573       -3.16297915
 C            0.57481857       -0.18505433       -3.52548202
 C            0.32653341        3.30359678       -2.68728010
 C           -0.98928204        3.36258173       -2.06518518
 C            0.36788677        2.12244387       -3.52185065
 C           -2.57616094        1.53847025       -1.72960097
 C           -2.66631292        0.09829257       -1.89944076
 C           -1.65420171       -0.58466150       -2.57545250
 C           -0.84564736        0.11685307       -3.47032241
 C           -1.78732711        2.27410013       -2.60041431
 C           -0.97449836        1.56444990       -3.57311599
