58
Modified xyz file
 C            1.31766984        0.10255406        3.91410827
 C            2.46965538        0.00708195        3.04182480
 C            2.47776569       -1.33192768        2.47896929
 C            0.49305015       -1.07556446        3.68403982
 C            1.17296452       -1.91128360        2.70783322
 C           -0.85674526       -0.62371016        3.39178063
 C            0.46333503        1.26503657        3.79648740
 C           -0.90745667        0.79536381        3.67044395
 C            0.68918145        2.19841425        2.70625031
 C            2.59949200        0.94136906        1.93355073
 C            1.60620049        1.88682126        1.69854019
 C            2.93812888       -1.22366397        1.11123172
 C            3.12989111        0.19023858        0.81563786
 C            2.35154072       -2.02058483        0.13235989
 C            0.45776229       -2.37408763        1.60870874
 C            1.13509243       -2.65940316        0.41601619
 C           -1.48446633       -1.10090057        2.24738186
 C           -0.92604939       -2.19444607        1.58569930
 C           -2.42296676       -0.29973255        1.58541674
 C           -1.57268479        1.66000885        2.71443756
 C           -0.62065717        2.69729544        2.33830331
 C           -2.37747569        1.09333756        1.72705363
 C           -0.76867636        3.31811649        1.10922980
 C            1.36321924        2.31542400        0.39011689
 C            0.31897948        3.21436869        0.14970653
 C            2.88325284        0.62160450       -0.48271966
 C            2.03547943        1.72242402       -0.69060819
 C            2.66835455       -1.70804474       -1.18794858
 C            3.03452571       -0.33419316       -1.48711845
 C            1.84301572       -2.19682429       -2.28147842
 C            0.44256389       -3.29925558       -0.61062535
 C            0.69344430       -2.91114531       -1.98646806
 C           -1.68010483       -2.86146900        0.63091539
 C           -0.99388357       -3.49050536       -0.48062344
 C           -3.15033799       -0.84806875        0.52981261
 C           -2.86122895       -2.20697615        0.10270954
 C           -3.34931994       -0.05925608       -0.67343038
 C           -2.77415005        1.90309865        0.66336872
 C           -2.00608402        3.10328985        0.38109892
 C           -3.12641045        1.30326469       -0.61338331
 C           -0.26400020        3.30871502       -1.17895127
 C           -1.69517964        3.10831929       -1.03764646
 C           -2.29115039        1.92171888       -1.62946722
 C            1.68677180        2.09960682       -1.99108476
 C            0.38051638        2.67901002       -2.22898493
 C            2.61719475       -0.04696584       -2.84209104
 C            1.76037798       -1.13820178       -3.27611752
 C            1.91942029        1.19063300       -3.09812748
 C           -1.50669291        1.12786639       -2.46696256
 C           -0.35921796        1.69944374       -3.01102280
 C            0.45625904       -0.57629145       -3.58724895
 C            0.61760481        0.85825868       -3.66267942
 C           -0.57115888       -2.43733829       -2.52238660
 C           -1.61715292       -3.01751162       -1.70863987
 C           -2.74756496       -2.19479723       -1.34799503
 C           -2.76077164       -0.80723683       -1.76775815
 C           -0.66576077       -1.11581710       -2.96302557
 C           -1.66536169       -0.26748088       -2.44844037
