58
Modified xyz file
 C            1.51305115       -0.07926978        4.22533776
 C            0.56690092       -1.17505215        4.10461662
 C            1.19176528       -2.21279399        3.32126733
 C            2.60951048       -0.34456096        3.30957648
 C            2.46456998       -1.69676958        2.82941508
 C            2.63896411        0.72591173        2.33713474
 C            0.84612487        1.13459498        3.78040417
 C            1.61252762        1.69375468        2.69564926
 C           -0.68490368       -0.62447462        3.63389013
 C           -0.53683678        0.81899245        3.52390457
 C           -1.41502668       -1.28025618        2.64509087
 C            0.47486385       -2.74464241        2.17623558
 C           -0.78198383       -2.23849818        1.82641866
 C            2.49464289       -1.93039181        1.39756986
 C            1.46800427       -2.92028759        1.13562516
 C            2.83119109        0.44570372        0.98417582
 C            2.64302246       -0.86246946        0.50310252
 C            2.64485439        1.51402238        0.11669428
 C            0.94402249        2.33667047        1.65947706
 C            1.67830600        2.53303514        0.49382500
 C           -1.19087963        1.45713362        2.47361335
 C           -0.45917581        2.26238308        1.58107088
 C           -2.50359608       -0.57485627        2.14643396
 C           -2.38022502        0.87058959        2.04387771
 C           -3.17948198       -1.05032676        0.96358815
 C           -1.25821453       -2.49387800        0.52896116
 C           -2.47972843       -1.98090912        0.10984830
 C            1.03295226       -3.06917437       -0.16530663
 C           -0.39355069       -3.00616451       -0.43609863
 C            2.29351441       -1.07597471       -0.84007289
 C            1.67590753       -2.27657960       -1.19299538
 C            2.49955927        1.27706265       -1.30209529
 C            2.31297408       -0.02174500       -1.75996969
 C            1.02897210        3.00667526       -0.71235957
 C            1.68131415        2.35685280       -1.83786673
 C           -1.10915606        2.80731269        0.46956189
 C           -0.34657702        3.17363098       -0.71497138
 C           -3.00103727        1.28882607        0.80077617
 C           -3.54811935        0.10708169        0.16347183
 C           -2.37064816        2.24140093        0.01849349
 C           -2.62404783       -1.51393664       -1.26164819
 C           -3.19305019       -0.17589146       -1.21365997
 C           -0.54717820       -2.59408811       -1.82657200
 C            0.79121419       -2.31225645       -2.33835489
 C           -1.62569565       -1.78430883       -2.19564090
 C            1.80375008       -0.21145488       -3.04782418
 C            0.95230374       -1.35807586       -3.32553435
 C            0.97763745        2.14550447       -3.01508101
 C            1.24675981        0.92908899       -3.75905911
 C           -1.11682798        2.78635387       -1.88761326
 C           -2.28716769        2.05144946       -1.42481086
 C           -2.62371046        0.81965410       -2.00114272
 C           -0.46211394        2.37468918       -3.04252008
 C           -1.49893792       -0.93104275       -3.29244396
 C           -0.23281772       -0.87111578       -3.99938215
 C            0.00727039        0.50750862       -4.38600227
 C           -2.01328255        0.42793918       -3.18907421
 C           -1.06248018        1.31742302       -3.83100756
