58
Modified xyz file
 C            1.53515306       -0.11264519        4.11973536
 C            0.73046771       -1.30891513        3.96148338
 C            1.36712371       -2.15746543        2.96494670
 C            2.63859347       -0.19801811        3.18275556
 C            2.48686582       -1.41910122        2.40724231
 C            2.69688066        1.05956253        2.46185503
 C            0.71882831        1.02214601        3.72382812
 C            1.40915906        1.71193070        2.64835756
 C           -0.64442744       -0.89148145        3.74783809
 C           -0.62956148        0.53981149        3.47927232
 C           -1.46654696       -1.70659483        2.98202573
 C            0.56215497       -2.90401811        2.11957651
 C           -0.87921162       -2.85458587        2.30727077
 C            0.82028948       -2.87832047        0.68900731
 C            2.66606123       -1.34228113        1.02530233
 C            1.77983654       -2.01270607        0.16414787
 C            3.23322749        1.03454713        1.18631815
 C            3.40403186       -0.26061434        0.54693895
 C            2.64850987        1.89242500        0.17550746
 C            0.67156447        2.09836841        1.53045025
 C            1.30980652        2.25449896        0.29425914
 C           -1.32392682        1.02897054        2.37560179
 C           -0.71878687        2.00943223        1.57689546
 C           -2.40817405       -1.09373070        2.06017889
 C           -2.39711734        0.28599180        1.87103795
 C           -1.50285083       -2.97702909        1.00203567
 C           -0.45560727       -3.00599375        0.00400899
 C           -2.51828060       -1.95088135        0.88966987
 C           -0.64739475       -2.29218048       -1.16972555
 C            1.67444894       -1.63698646       -1.18372657
 C            0.47646033       -1.86089790       -1.87265077
 C            3.47477547       -0.01672557       -0.87637572
 C            3.12183295        1.38167508       -1.08978039
 C            2.63182634       -0.79982410       -1.74933370
 C            2.22860546        1.42610636       -2.22577919
 C            2.23433487        0.09678620       -2.81594617
 C            0.54326092        2.49340023       -0.85655993
 C            1.01481734        2.10393998       -2.12241699
 C           -1.45093433        2.61147334        0.56424752
 C           -0.78605901        2.88538521       -0.69920654
 C           -3.11440984        0.78540518        0.78918649
 C           -2.76965773        2.09298200        0.27141040
 C           -2.72038517       -1.34487613       -0.34573312
 C           -1.89101137       -1.69421957       -1.41738743
 C           -3.33305625       -0.09420757       -0.34897086
 C           -2.11845623       -1.10842908       -2.66021400
 C            0.31224745       -1.35576673       -3.16144684
 C            1.16002402       -0.26149812       -3.61141637
 C           -1.03623847       -1.08782429       -3.62922205
 C            0.12124966        1.95876905       -3.18460938
 C            0.27567256        0.80102774       -4.05136360
 C           -1.03337670        0.21647394       -4.26928195
 C           -1.74711000        2.65884598       -1.76639054
 C           -2.93391204        2.06560822       -1.17074876
 C           -3.32022328        0.71614864       -1.55529150
 C           -2.79471944        0.17987359       -2.72276576
 C           -1.30175100        2.17101112       -2.98443161
 C           -2.00492367        1.04522159       -3.58161665
