58
Modified xyz file
 C            1.45658436       -0.15382341        4.73366335
 C            0.57735921       -1.28687413        4.55345898
 C            1.12563518       -2.09547402        3.47759058
 C            2.53319809       -0.28272845        3.76531004
 C            2.17605736       -1.33999214        2.83653840
 C            2.75671777        1.03564441        3.23851316
 C            0.70748389        1.03780858        4.37000893
 C            1.61155048        1.86391630        3.61778730
 C           -0.69874749       -0.77591926        4.08188475
 C           -0.52571151        0.61418337        3.73143409
 C            0.01303143       -2.48561499        2.65854716
 C           -1.12646685       -1.66142186        3.03599428
 C            0.21498501       -2.64128667        1.29614397
 C            2.05896567       -1.06302618        1.46527370
 C            1.19775555       -1.84563805        0.67449518
 C            2.90153436        1.18735407        1.80743002
 C            2.59397445        0.12545383        0.94469387
 C            1.13285944        2.46659347        2.39322781
 C            2.29348680        2.46775846        1.53519202
 C           -0.81027783        1.01227310        2.41563336
 C           -0.08875293        2.06582573        1.83326136
 C           -1.86254135       -1.13865359        1.98430180
 C           -1.63081027        0.20022667        1.61140640
 C           -0.95255924       -2.87224361        0.59393282
 C           -2.08953451       -2.04989486        0.97054356
 C           -0.90878575       -2.89665841       -0.84181923
 C            1.09609826       -1.58575362       -0.70513015
 C            0.18502344       -2.32551429       -1.47523628
 C            2.39436357        0.44616461       -0.40392554
 C            1.68523293       -0.42964777       -1.24252554
 C            2.08269836        2.77891845        0.21928948
 C            2.49752570        1.79547500       -0.75445699
 C           -0.30685938        2.39992963        0.49078014
 C            0.72311624        3.07888350       -0.16672052
 C           -1.93737333        0.60834107        0.29964413
 C           -1.26351453        1.70315939       -0.26581913
 C           -2.70351663       -1.59856715       -0.24735212
 C           -2.24080162       -2.51546318       -1.27197161
 C           -2.70039554       -0.23850698       -0.51950123
 C           -2.41566905       -2.15245947       -2.59269975
 C            0.07145632       -2.08486673       -2.83940475
 C           -1.24720166       -2.20715925       -3.45355717
 C            1.42537604       -0.05985860       -2.57656984
 C            0.71593049       -0.92036611       -3.40772486
 C            1.91113236        2.26066048       -1.98656877
 C            0.76720358        3.08806284       -1.60766620
 C            1.42229430        1.28771934       -2.92724156
 C           -1.41878047        1.99734166       -1.63451227
 C           -0.36650068        2.58157059       -2.33475150
 C            0.20022406        1.86009348       -3.45746686
 C           -3.01503283        0.14760648       -1.81708739
 C           -3.07603628       -0.88432857       -2.84780320
 C           -2.35880742        1.30361380       -2.38928350
 C           -1.38836670       -1.16619969       -4.45267142
 C           -0.20175370       -0.33620096       -4.38188269
 C           -0.63646934        1.03556418       -4.18297645
 C           -2.52741014       -0.34231017       -4.07538668
 C           -2.03017765        0.98630970       -3.77626744
