58
Modified xyz file
 C            1.26980642       -0.17963981        4.05613354
 C            2.45460275       -0.40292046        3.24952044
 C            2.29180190       -1.67929184        2.57041670
 C            0.40827527       -1.34088071        3.90008618
 C            0.94325587       -2.14502669        2.81433159
 C           -0.95480231       -0.86689658        3.80151400
 C            0.46260145        1.00550879        3.81848690
 C           -0.92608456        0.58654999        3.75289792
 C            0.90821274        1.97874297        2.93185841
 C            2.82978304        0.58522313        2.25250904
 C            2.15417724        1.79410336        2.19366357
 C            2.71650071       -1.50712062        1.19797467
 C            3.12046871       -0.12005518        1.01761839
 C            1.99246207       -2.11620002        0.18075940
 C            0.13506374       -2.45211818        1.71851366
 C            0.73450482       -2.66519232        0.46531362
 C           -1.75735599       -1.31877289        2.68585138
 C           -1.25588179       -2.27851810        1.81401707
 C           -1.74408468        1.01124438        2.62398846
 C           -2.42053676       -0.16194401        2.11038515
 C           -0.04257242        2.59311288        2.01950161
 C           -1.23863951        1.93898135        1.72314318
 C            1.99700537        2.44942463        0.90690522
 C            0.73513848        3.17532859        0.94354242
 C            2.87929233        0.48784431       -0.21649504
 C            2.37771860        1.79693704       -0.26855156
 C            2.28088873       -1.70950142       -1.11795289
 C            2.74897491       -0.34914307       -1.32522153
 C            1.38839995       -2.05378315       -2.21008735
 C           -0.02520234       -3.20096548       -0.57216251
 C            0.25726250       -2.81161931       -1.94509907
 C           -2.04734196       -2.55879569        0.70819146
 C           -1.46223535       -3.25084669       -0.41859586
 C           -2.76411299       -0.21716756        0.76308143
 C           -2.87907320       -1.48377618        0.18791181
 C           -1.72077308        1.95059443        0.41229631
 C           -2.50279481        0.88503532       -0.05949319
 C            0.09993356        3.46183258       -0.25273439
 C           -1.22433517        2.90448781       -0.47806847
 C            1.95034667        2.33281784       -1.48481521
 C            0.85456046        3.28760683       -1.47870919
 C            2.16214322        0.14292229       -2.55862188
 C            1.30518168       -0.90327416       -3.09737643
 C            1.77352243        1.47038495       -2.64122417
 C            0.09376737       -0.57147264       -3.69392366
 C           -1.00491196       -2.48388579       -2.59280817
 C           -2.06760453       -2.72362460       -1.63061810
 C           -2.94918974       -1.62775470       -1.25511890
 C           -1.09063028       -1.37489004       -3.42833676
 C           -2.83825195        0.81299164       -1.41274961
 C           -2.98540283       -0.48853624       -2.04587007
 C           -2.21872715       -0.46888728       -3.28081425
 C           -1.38413630        2.72006674       -1.90975210
 C           -0.07920457        2.91132140       -2.52446653
 C            0.51371882        1.82194868       -3.28254881
 C           -0.31636119        0.82262879       -3.77872324
 C           -2.19924557        1.69899537       -2.37209183
 C           -1.73987882        0.88586532       -3.48738279
