58
Modified xyz file
 C            1.23933462       -0.13591134        4.05594248
 C            2.42325450       -0.42405939        3.26953315
 C            2.22989947       -1.72430724        2.64555295
 C            0.33994532       -1.27167148        3.92454008
 C            0.85688720       -2.12186884        2.86597103
 C           -1.00493978       -0.75484234        3.80101167
 C            0.47542017        1.06702105        3.77287158
 C           -0.92716798        0.69619943        3.73198965
 C            0.95157862        1.98729837        2.84633235
 C            2.83157619        0.50828089        2.23200913
 C            2.17584867        1.72147948        2.09601797
 C            2.69944296       -1.63209101        1.28126495
 C            3.13537912       -0.26458356        1.04301103
 C            1.98871048       -2.27034206        0.27207671
 C            0.06004161       -2.40879651        1.75613641
 C            0.67717615       -2.69869317        0.52598583
 C           -1.80886357       -1.19557976        2.68183236
 C           -1.32366793       -2.16929243        1.81535262
 C           -1.74576909        1.13268738        2.60882470
 C           -2.44974527       -0.02751838        2.10368911
 C            0.01801771        2.62249537        1.93087529
 C           -1.23295079        2.04542186        1.69717861
 C            2.00506698        2.28442271        0.76677547
 C            0.80383335        3.09955070        0.80687479
 C            2.93066423        0.27466236       -0.22774088
 C            2.26540931        1.50656180       -0.36452944
 C            2.36233131       -1.95681677       -1.03249431
 C            2.91314824       -0.63468284       -1.28064121
 C            1.49856615       -2.30016701       -2.14845485
 C           -0.08936579       -3.20131141       -0.52285646
 C            0.25840461       -2.86066847       -1.89208710
 C           -2.10569290       -2.42783663        0.69747560
 C           -1.53081754       -3.14598781       -0.41801369
 C           -2.79808342       -0.07544481        0.75738867
 C           -2.90623185       -1.33595997        0.16363879
 C           -1.78436768        2.10831222        0.41593495
 C           -2.58220566        1.04674340       -0.05123864
 C            0.15189526        3.37195417       -0.38035006
 C           -1.25778179        3.04788966       -0.47203899
 C            1.68763987        1.88253779       -1.58970693
 C            0.75140641        2.91654375       -1.61983909
 C            2.48182848       -0.20821874       -2.59050256
 C            1.60102252       -1.23496988       -3.12962182
 C            1.80587856        1.06262075       -2.70995807
 C            0.38918434       -0.57891624       -3.58950417
 C            0.65058719        0.85275158       -3.56985771
 C           -0.92690728       -2.29571105       -2.52351234
 C           -2.05143946       -2.56134918       -1.64441393
 C           -2.93266289       -1.46500933       -1.28458022
 C           -0.85202539       -1.06586569       -3.17921425
 C           -2.95028343        0.97147095       -1.39619895
 C           -2.91783482       -0.31714425       -2.06090168
 C           -1.95113905       -0.20657610       -3.14411416
 C           -1.57824740        2.98941441       -1.88331482
 C           -0.31868535        2.87921658       -2.60583047
 C           -0.41403864        1.74039380       -3.50208899
 C           -2.45559849        1.94396941       -2.35074135
 C           -1.76286640        1.21229381       -3.40174074
