58
Modified xyz file
 C            1.52429707       -0.10243060        4.11294477
 C            0.71384314       -1.29782583        3.97636302
 C            1.35882445       -2.17703529        3.01243134
 C            2.63520551       -0.21653639        3.18809165
 C            2.47145681       -1.44658851        2.43017958
 C            2.71823486        1.02922879        2.44854592
 C            0.71852775        1.02595717        3.68094598
 C            1.44458780        1.71235048        2.62411200
 C           -0.65544684       -0.87867201        3.72922169
 C           -0.61924846        0.53597181        3.39222235
 C           -1.47302940       -1.72040182        2.98997196
 C            0.55662074       -2.95196046        2.18988145
 C           -0.88215814       -2.90870520        2.39255208
 C            0.79626570       -2.94041829        0.75492587
 C            2.62848692       -1.38699857        1.04527298
 C            1.70732999       -2.04049157        0.20996598
 C            3.25701757        0.97645847        1.17433537
 C            3.38130125       -0.32803785        0.54158181
 C            2.71621809        1.85739881        0.15846997
 C            0.73486808        2.13094997        1.49895288
 C            1.40168658        2.29880912        0.27865693
 C           -1.24751090        0.98015243        2.23209740
 C           -0.65507920        2.01367987        1.50604036
 C           -2.37309399       -1.14530329        2.00319270
 C           -2.22875976        0.19006845        1.62387748
 C           -1.51694989       -3.12118266        1.10655079
 C           -0.47929144       -3.13944648        0.08883212
 C           -2.58825588       -2.15126630        0.97714052
 C           -0.72476909       -2.48446402       -1.11333739
 C            1.55016742       -1.64593990       -1.12593070
 C            0.33428318       -1.87066849       -1.78756547
 C            3.42693101       -0.10186383       -0.88603232
 C            3.15021852        1.31188716       -1.10575374
 C            2.51800908       -0.84651248       -1.72753873
 C            2.24926777        1.40025502       -2.23218900
 C            2.12423393        0.06061724       -2.78542229
 C            0.66165673        2.61475170       -0.86997428
 C            1.10498225        2.18884494       -2.13897361
 C           -1.37471394        2.60235754        0.47988834
 C           -0.64893061        3.05869051       -0.68885402
 C           -2.80707273        0.62341627        0.42710831
 C           -2.57015718        1.93053452        0.00766056
 C           -2.91515419       -1.72283362       -0.29773734
 C           -2.03448266       -2.09085197       -1.39498687
 C           -3.24770175       -0.32466068       -0.49911924
 C           -2.28950806       -1.15453657       -2.47568053
 C           -3.10141266       -0.07158399       -1.92536639
 C            0.09130661       -1.26692240       -3.02547271
 C            0.99037198       -0.23566199       -3.52243985
 C           -1.26658993       -0.87470225       -3.37062481
 C            0.21509098        2.11173779       -3.21154656
 C            0.16943547        0.87544709       -3.97299781
 C           -1.21130330        0.42928367       -4.00589204
 C           -1.58624318        3.07128446       -1.79382962
 C           -2.74467993        2.28724090       -1.39179527
 C           -2.93002532        1.23379285       -2.37145941
 C           -1.14605486        2.58800842       -3.08000266
 C           -2.03310397        1.50532786       -3.48149149
