58
Modified xyz file
 C            1.51904193        0.06205517        3.98577460
 C            0.69409772       -1.11916102        3.80477050
 C            1.33963463       -1.96453602        2.81850685
 C            2.54817955        0.04372964        2.95998052
 C            2.51195045       -1.25406131        2.32386496
 C            2.36964745        1.21014059        2.12269878
 C            0.68516609        1.22345185        3.74382803
 C            1.34706242        2.03846947        2.74315480
 C           -0.66672381       -0.68689178        3.56087121
 C           -0.66746916        0.76541179        3.46985172
 C           -1.43787081       -1.41457045        2.67087528
 C            0.55982222       -2.67533592        1.90355567
 C           -0.82449220       -2.47710371        1.87910708
 C            1.19271945       -3.16494614        0.76169450
 C            2.79455799       -1.34735571        0.96778575
 C            2.44611975       -2.54990133        0.36522757
 C            2.36379499        1.03627612        0.73885132
 C            2.81061312       -0.17345426        0.19371076
 C            1.70146227        1.96870884       -0.07124277
 C            0.55048116        2.81730207        1.92345042
 C            0.91408343        2.95158682        0.52716301
 C           -1.38756501        1.39773916        2.45490733
 C           -0.88756284        2.59886667        1.94599542
 C           -2.37831910       -0.71388672        1.81690938
 C           -2.34133738        0.67581603        1.72442256
 C           -1.54716093       -2.55487314        0.61578444
 C           -2.54911358       -1.49927294        0.60553545
 C            0.42651266       -3.38413974       -0.45501612
 C           -0.86117240       -2.86761493       -0.55163802
 C            2.59465394       -2.71145269       -1.06449368
 C            1.34315421       -3.24894497       -1.57623815
 C            2.98194969       -0.25422076       -1.18596551
 C            2.93605644       -1.54702277       -1.84845069
 C            1.62872924        1.77738082       -1.45702552
 C            2.28411047        0.69338447       -2.03422211
 C            0.60290552        2.38066501       -2.18925333
 C           -0.27182583        3.42813937       -0.15795582
 C           -1.41397354        3.13705271        0.70532055
 C           -0.36882280        3.23618690       -1.52792642
 C           -2.99671405        1.27529940        0.64914392
 C           -2.56411224        2.57678506        0.17049175
 C           -2.85807830       -0.84535122       -0.58270909
 C           -3.32839761        0.46417293       -0.51394483
 C           -1.32037455       -2.36719374       -1.76960461
 C           -2.35286604       -1.33970757       -1.78600743
 C            0.94776176       -2.44811733       -2.71923672
 C            1.98149752       -1.45520365       -2.94048000
 C            1.59681225       -0.06269287       -3.07177546
 C           -0.37954350       -2.06480306       -2.84200017
 C           -0.10221458        1.59121061       -3.18728772
 C           -2.05062588       -0.43244703       -2.88702629
 C            0.27703244        0.26522033       -3.36720304
 C           -0.70104457       -0.73594002       -3.34409398
 C           -1.66916488        2.98477646       -2.12607027
 C           -2.77817559        2.62150407       -1.26543403
 C           -3.26237009        1.31696983       -1.68746324
 C           -1.51139436        1.93422211       -3.11826261
 C           -2.47112511        0.88767848       -2.82520653
