58
Modified xyz file
 C            1.21743610        0.01465274        4.07367738
 C            2.47208357       -0.10691413        3.36035055
 C            2.54678684       -1.46442472        2.85462416
 C            0.41340278       -1.15847275        3.75294035
 C            1.20180475       -2.01469875        2.89510483
 C           -0.86867252       -0.69595822        3.27415127
 C            0.39965922        1.18381990        3.82758657
 C           -0.95196095        0.72040679        3.56541718
 C            0.75383782        2.07421694        2.73579512
 C            2.73577880        0.77943373        2.23890730
 C            1.77845446        1.72212898        1.85299270
 C            3.23190132       -1.41996019        1.57353281
 C            3.40995964       -0.01488550        1.22580160
 C            2.82591081       -2.31578353        0.59284986
 C            0.65454953       -2.50460620        1.71141938
 C            1.55059908       -2.99307888        0.76510834
 C           -1.33557659       -1.13140505        2.04132879
 C           -0.63083174       -2.09718963        1.30476045
 C           -2.30727780       -0.36674412        1.40502447
 C           -1.51855143        1.59260477        2.54995460
 C           -0.50060663        2.57147831        2.20429657
 C           -2.26644730        1.02814479        1.51975614
 C           -0.51395557        3.10520511        0.92686352
 C            1.72179103        2.15058462        0.52115348
 C            0.66806519        2.95557394        0.09234794
 C            3.32557634        0.38314063       -0.10131748
 C            2.53860422        1.55726357       -0.43803858
 C            2.92140302       -1.93997751       -0.80742207
 C            3.11465369       -0.60780522       -1.14747909
 C            1.07442244       -3.36492448       -0.54560951
 C            1.93129545       -2.71653516       -1.52845939
 C           -1.14777497       -2.52261041        0.06608029
 C           -0.29645445       -3.06650517       -0.89088834
 C           -3.00843461       -0.94695185        0.36246684
 C           -2.35960025       -2.00386293       -0.38902625
 C           -3.70970943       -0.09141387       -0.57640056
 C           -2.53882881        1.81472412        0.39853285
 C           -1.66812745        2.85601298        0.07942919
 C           -3.39031352        1.32179076       -0.58534055
 C            0.22342027        2.87751055       -1.29476408
 C           -1.22720695        3.02312591       -1.29437046
 C            2.03975625        1.38323955       -1.79311990
 C            2.29552059        0.00519963       -2.18625019
 C            0.84317296        1.98385560       -2.17051651
 C            1.06887560       -2.05373003       -2.49051587
 C           -0.29153773       -2.49682126       -2.22792961
 C            1.29126324       -0.72141100       -2.82996481
 C           -2.49116579       -1.67363853       -1.80183940
 C           -3.47779206       -0.61183478       -1.91354453
 C           -1.35152793       -1.68172222       -2.61027365
 C           -3.17871475        1.71489822       -1.96989411
 C           -1.97864738        2.45882635       -2.31563438
 C           -3.21664633        0.51240479       -2.78809836
 C            0.10929456        1.39940975       -3.19898889
 C            0.25896012       -0.02543279       -3.45101282
 C           -1.07569345       -0.60363490       -3.45496768
 C           -1.29559460        1.73153259       -3.36776987
 C           -2.02058873        0.49174816       -3.60281758
