58
Modified xyz file
 C            1.10176327        0.03053736        4.03911514
 C            2.36824507       -0.34137824        3.45522350
 C            2.26940788       -1.74700751        3.09153051
 C            0.25886996       -1.15602415        4.01416465
 C            0.85624867       -2.05651788        3.05018076
 C           -1.09468635       -0.70616227        3.78578282
 C            0.33701815        1.08916790        3.41334363
 C           -1.04705404        0.74000461        3.62585131
 C            0.70532053        1.56856439        2.15515947
 C            2.81181355        0.35673973        2.26682888
 C            1.92718718        1.18505954        1.57531118
 C            3.04554522       -1.92561138        1.88943373
 C            3.56357620       -0.61741300        1.51114153
 C            2.38641759       -2.45544098        0.71494171
 C            0.22549648       -2.24928862        1.81470696
 C            0.99171498       -2.52431560        0.66543074
 C           -1.81186743       -1.22602212        2.63961919
 C           -1.15623332       -2.02557170        1.70598831
 C           -1.99474906        1.08667959        2.58963118
 C           -2.64499847       -0.14085307        2.15846194
 C           -0.25692754        2.21957447        1.37140241
 C           -1.62454496        1.99716772        1.60770290
 C            0.15544974        2.84659617        0.19782569
 C            2.16501997        1.45135548        0.22090638
 C            1.40977416        2.43753572       -0.40778968
 C            3.50797015       -0.54772011        0.06587737
 C            3.08655449       -1.86005766       -0.40123897
 C            2.95574601        0.57727153       -0.54333473
 C            2.50897589       -1.94539131       -1.65555250
 C            0.37611985       -2.59700002       -0.58970797
 C            1.12810150       -2.39817754       -1.74982380
 C           -1.79295371       -2.23186710        0.48990061
 C           -1.00816830       -2.55930436       -0.68303329
 C           -3.13766209       -0.19120436        0.85686369
 C           -2.85774037       -1.32160016        0.08175965
 C           -2.53563076        2.16071177        0.56942245
 C           -3.38015301        1.02757109        0.22516375
 C           -0.79736453        3.10070180       -0.87033673
 C           -2.13816741        2.81079690       -0.66342587
 C            1.22377258        2.40383112       -1.84928875
 C           -0.15557381        2.76573350       -2.13566859
 C            2.77808127        0.51428366       -1.92456765
 C            2.64151498       -0.79713490       -2.53338322
 C            1.84322098        1.40614821       -2.58773331
 C            0.51723693       -1.72559570       -2.88856116
 C            1.48036975       -0.76565760       -3.39988469
 C            1.06955332        0.61786775       -3.54058324
 C           -1.63031667       -1.92260270       -1.83600795
 C           -2.82969765       -1.23621481       -1.37372588
 C           -0.82517643       -1.35996755       -2.82724150
 C           -3.62211866        1.06946855       -1.20382367
 C           -2.93292276        2.23535004       -1.73599827
 C           -3.25338135       -0.07696545       -2.00940928
 C           -0.85672724        2.07964154       -3.12415143
 C           -0.28312270        0.87891222       -3.70475170
 C           -1.23682620       -0.20000697       -3.48716533
 C           -2.28040369        1.83848262       -2.96747154
 C           -2.51091779        0.41231982       -3.15501137
