58
Modified xyz file
 C            1.27593341       -0.22321142        3.85946419
 C            2.54271555       -0.48756040        3.20540470
 C            2.44876156       -1.78858583        2.56067247
 C            0.43887076       -1.40204505        3.70473358
 C            1.14703374       -2.35429453        2.87192159
 C           -0.88215250       -0.96172483        3.29428545
 C            0.49917389        0.93535885        3.45081565
 C           -0.84349589        0.48306668        3.12836282
 C            1.08715281        1.91422028        2.66353294
 C            3.03590940        0.46017293        2.22131391
 C            2.40993759        1.69597082        2.08613402
 C            2.82977826       -1.62192024        1.16739724
 C            3.39754738       -0.29277280        1.03044159
 C            1.99631837       -2.12177337        0.16782724
 C            0.44575888       -3.00584212        1.86734210
 C            0.99028895       -3.02320472        0.51817940
 C           -1.60544197       -1.71196670        2.37215177
 C           -0.99183808       -2.80248656        1.74371847
 C           -2.68806273       -1.08923851        1.75791470
 C           -1.54712748        1.05277468        2.06551961
 C           -2.64740460        0.35555972        1.58221225
 C            0.27948862        2.58114436        1.66030981
 C           -0.92911958        2.01209379        1.25459743
 C            2.44387611        2.37759338        0.80137997
 C            1.19297377        3.10893704        0.66370003
 C            3.35749316        0.32691451       -0.20967173
 C            2.98688826        1.73086683       -0.30429638
 C            1.99478878       -1.52498710       -1.09849931
 C            2.73488274       -0.36676561       -1.32373015
 C            1.05872580       -1.91124341       -2.05458430
 C           -0.11594834       -3.26968504       -0.39027180
 C           -1.34998922       -3.16343012        0.37595798
 C           -0.05543123       -2.76483143       -1.68008588
 C           -3.26933343       -1.66959870        0.56268062
 C           -2.48418423       -2.61246291       -0.20695042
 C           -3.17560809        0.66312471        0.26854083
 C           -3.65466823       -0.58008037       -0.31643981
 C           -1.42048943        2.28870902       -0.03015675
 C           -2.50772909        1.56909019       -0.54654396
 C            0.69898028        3.39156273       -0.59990678
 C           -0.71335375        3.17384093       -0.84916572
 C            2.39904319        1.94321279       -1.61695528
 C            2.22518710        0.63857663       -2.24394242
 C            1.41395511        2.90901697       -1.77333108
 C            0.57118126       -0.93109639       -3.01442628
 C            1.07651392        0.36977549       -2.98877513
 C           -1.25585951       -2.24068889       -2.31227939
 C           -2.43623097       -2.13492321       -1.58202316
 C           -3.23564907       -0.91946196       -1.66478785
 C           -0.85531555       -1.16295352       -3.20348906
 C           -2.67504682        1.44110629       -1.92745215
 C           -2.82940272        0.11442374       -2.49862354
 C           -1.70572568       -0.08359821       -3.40072303
 C           -0.86240427        3.10382748       -2.28867590
 C            0.43569851        2.73675328       -2.83188942
 C            0.29117578        1.42808231       -3.44553851
 C           -1.83893346        2.19241506       -2.83917346
 C           -1.13008701        1.22424249       -3.66412371
