58
Modified xyz file
 C            1.57690804       -0.12390631        4.24580578
 C            0.70345322       -1.27811327        4.36091564
 C            1.17202764       -2.27724276        3.42190181
 C            2.51333165       -0.37193845        3.16186362
 C            2.27796510       -1.71165292        2.66361658
 C            2.41898434        0.73349514        2.22528667
 C            0.75888568        1.00508322        3.85231000
 C            1.41212085        1.65319880        2.72815592
 C           -0.62858734       -0.87996477        3.93345991
 C           -0.60177417        0.53897496        3.65342153
 C            0.01707266       -2.75593933        2.68449385
 C           -1.04554616       -1.77748686        2.87426138
 C            0.23743978       -3.24129004        1.40575706
 C            2.29860938       -1.92246809        1.28873846
 C            1.52061388       -2.96191617        0.78348069
 C            2.43823536        0.45610866        0.85928152
 C            2.63997469       -0.86316193        0.43820853
 C            1.87167727        1.38566015       -0.02458445
 C            0.60317733        2.28579988        1.79572062
 C            1.09148190        2.42097638        0.49889085
 C           -1.26715471        1.01463854        2.53168905
 C           -0.77813974        2.18149044        1.96251193
 C           -1.68276821       -1.24616845        1.75275848
 C           -1.96424256        0.12907333        1.70014789
 C           -0.76648961       -3.00271227        0.38637469
 C           -1.71762856       -2.00646337        0.58185779
 C            1.33835078       -3.07566552       -0.64981340
 C           -0.09837171       -3.09831631       -0.90256025
 C            2.76217820       -1.11486140       -0.92461860
 C            2.15072849       -2.31710657       -1.47554564
 C            1.86062149        1.11467348       -1.39894826
 C            2.50710525       -0.03287655       -1.85835198
 C            1.03536882        1.85141114       -2.26262005
 C            0.39352153        3.26101730       -0.35838295
 C            0.36893893        2.97205118       -1.77933387
 C           -1.59416764        2.83504073        1.05593068
 C           -0.95031614        3.64024719        0.03795309
 C           -2.62128259        0.66011869        0.58104049
 C           -2.62017092        2.04572608        0.39539327
 C           -2.39789666       -1.52209768       -0.52527567
 C           -2.93077912       -0.17413290       -0.49421063
 C           -0.61766272       -2.39887998       -1.99170099
 C           -1.85381824       -1.76239114       -1.85606055
 C            1.66332411       -1.99545132       -2.80111168
 C            2.09590820       -0.64425369       -3.10783433
 C            0.23283071       -2.05799529       -3.04447971
 C            0.53443536        1.26117957       -3.42558107
 C            1.04024076       -0.01850093       -3.87058724
 C           -0.09248449       -0.93538033       -3.90512592
 C           -2.91045677        0.33935050       -1.85992100
 C           -2.19571343       -0.61824965       -2.69006295
 C           -0.90229425        1.23829134       -3.63876060
 C           -1.29295371       -0.16148207       -3.64127769
 C           -0.98028477        3.23254018       -2.26242407
 C           -1.80021684        3.62886000       -1.13551614
 C           -2.80259979        2.59528998       -0.93908909
 C           -1.67707617        2.16674593       -2.95832263
 C           -2.74463436        1.70102355       -2.07912642
