58
Modified xyz file
 C            1.50715669        0.11892071        4.27159241
 C            0.70326170       -1.08453483        4.18653104
 C            1.45267734       -2.05934691        3.41675862
 C            2.63497272       -0.03903385        3.36580107
 C            2.60101174       -1.38091230        2.83409937
 C            2.59624564        1.06163303        2.43012074
 C            0.70011942        1.22517034        3.78224148
 C            1.47652211        1.91733729        2.78692945
 C           -0.62090599       -0.70375589        3.72493487
 C           -0.58717976        0.71054669        3.38059608
 C           -1.31470224       -1.56961410        2.89118850
 C            0.77186057       -2.76489170        2.34734532
 C           -0.61119098       -2.67801912        2.25164026
 C            2.53332713       -1.55445080        1.39242253
 C            1.56084538       -2.60223772        1.13669820
 C            2.82055041        0.83496654        1.07142787
 C            2.56770631       -0.44274164        0.54259299
 C            2.63287756        1.94217730        0.25262929
 C            0.82190342        2.54101582        1.73617182
 C            1.65606429        2.92212973        0.69845486
 C           -1.12459234        1.12530168        2.16086397
 C           -0.49145689        2.14102469        1.41525061
 C           -2.21582464       -1.00675248        1.90241849
 C           -2.11883416        0.34006995        1.57102216
 C           -1.22284905       -2.88726327        0.95219752
 C           -2.35438553       -1.98380159        0.83757409
 C            0.91559046       -2.61459360       -0.09322518
 C           -0.41071072       -3.05798341       -0.16162351
 C            2.02762564       -0.57960277       -0.74680077
 C            1.40664630       -1.78140618       -1.09908303
 C            2.41168088        1.75635107       -1.16458477
 C            1.97010725        0.51753200       -1.61571296
 C            1.07859499        3.53715992       -0.46678692
 C            1.74393494        2.96112424       -1.62250083
 C           -1.06532627        2.56419619        0.20132941
 C           -0.34284735        3.38401414       -0.66869776
 C           -2.72850843        0.76755540        0.40309835
 C           -2.22710889        1.95034268       -0.26532130
 C           -2.72746739       -1.55646987       -0.43502486
 C           -3.08221561       -0.21494678       -0.61459931
 C           -1.04291255       -3.05829585       -1.39864702
 C           -2.28682264       -2.30878393       -1.52527037
 C            0.94188851       -1.96203506       -2.39454841
 C           -0.24577650       -2.77320963       -2.57327908
 C            1.23839215        0.43459247       -2.80949978
 C            0.83148298       -0.81199927       -3.27218946
 C            0.75254731        2.84673447       -2.66664998
 C           -0.53064252        3.24618858       -2.10250717
 C            0.55312070        1.55553584       -3.28655168
 C           -2.43959493        1.77398353       -1.69778923
 C           -2.94362963        0.42680243       -1.91652140
 C           -1.53294810        2.31838438       -2.59689277
 C           -0.86973880        1.44748131       -3.55505815
 C           -2.33142318       -1.74209889       -2.86125929
 C           -1.10609928       -2.12281583       -3.54377735
 C           -0.44489694       -0.90459138       -3.96625754
 C           -2.49887591       -0.30939655       -3.00907050
 C           -1.38924730        0.18731278       -3.81420100
