58
Modified xyz file
 C            1.31344036       -0.03950491        3.63294351
 C            2.55825699       -0.29500081        2.95228876
 C            2.52226119       -1.66147064        2.45930919
 C            0.47030905       -1.21800495        3.48721730
 C            1.18099018       -2.18058535        2.67578380
 C           -0.83466906       -0.77834597        3.04906336
 C            0.53423259        1.11121630        3.22640301
 C           -0.84265118        0.67682587        3.05771000
 C            1.05415148        2.04081221        2.32772475
 C            2.92390482        0.56431970        1.84566583
 C            2.24196172        1.75914759        1.61972695
 C            3.05605603       -1.66700272        1.10630379
 C            3.22230266       -0.28056838        0.69925696
 C            2.51948927       -2.56641301        0.19935581
 C            0.53208698       -2.79284734        1.60680309
 C            1.34262889       -3.31493180        0.59855441
 C           -1.46694406       -1.44318973        2.00764208
 C           -0.81431076       -2.48643453        1.33187222
 C           -2.55507792       -0.80846485        1.41672227
 C           -1.66158659        1.36096367        2.15794514
 C           -2.62209315        0.64529263        1.44261383
 C            0.15447513        2.98627989        1.83846352
 C           -1.24128655        2.60335853        1.68128243
 C            0.51517564        3.83878891        0.72375502
 C            2.47495940        2.36192625        0.38437409
 C            1.69696966        3.50766590       -0.03332865
 C            2.79878699        0.13858025       -0.56374501
 C            2.67201960        1.50424756       -0.77359322
 C            2.25679923       -2.11533284       -1.15408133
 C            2.10179573       -0.75124284       -1.38703589
 C            0.75189585       -3.82852462       -0.61744744
 C            1.30995521       -3.05199677       -1.71874317
 C           -1.46315831       -3.10885968        0.26140831
 C           -0.68729633       -3.81051358       -0.74330501
 C           -3.06584500       -1.26401093        0.13614952
 C           -2.52469005       -2.40498312       -0.44023627
 C           -3.02065224        1.09312697        0.11620657
 C           -3.33045511       -0.08808711       -0.68055033
 C           -1.67838496        3.06127385        0.37060607
 C           -0.61200446        3.87370188       -0.19427021
 C           -2.38455421        2.19340168       -0.45648208
 C            1.30197098        3.28918274       -1.41590148
 C            1.80314931        1.98401276       -1.82651692
 C           -0.12101671        3.56057885       -1.52468311
 C            1.06389016       -0.28297830       -2.21725894
 C            0.93828921        1.09615224       -2.45769655
 C            0.20633163       -2.53857218       -2.49282792
 C           -0.99712839       -3.20815319       -2.02641742
 C           -2.20386618       -2.41564433       -1.86262851
 C            0.13344009       -1.17950399       -2.77990506
 C           -3.03046607       -0.10782723       -2.03564686
 C           -2.30638635       -1.23780948       -2.59217170
 C           -1.10213087       -0.70496081       -3.20797563
 C           -2.15731712        2.23413172       -1.83271028
 C           -0.88662154        2.73459157       -2.33328502
 C           -0.24245886        1.61100380       -2.99170410
 C           -2.50003831        1.08973549       -2.65966833
 C           -1.29888572        0.71144718       -3.39333516
