58
Modified xyz file
 C            1.16339200        0.16976000        4.08842143
 C            2.41985869        0.00872357        3.38960347
 C            2.46877987       -1.36177869        2.92030318
 C            0.33782459       -0.99326208        3.78092599
 C            1.10849155       -1.86718345        2.92619637
 C           -0.93820869       -0.51182599        3.30530113
 C            0.37213680        1.34866332        3.81146784
 C           -0.99148398        0.90292562        3.59315543
 C            0.73062020        2.19480114        2.68406957
 C            2.71027026        0.86164795        2.24873647
 C            1.82130616        1.87155146        1.87605986
 C            3.18364836       -1.36939041        1.66062033
 C            3.30485125        0.01858521        1.22009024
 C            2.81416229       -2.32276058        0.72754646
 C            0.56721993       -2.31485272        1.72203155
 C            1.45096108       -2.84218727        0.78385849
 C           -1.41603048       -0.93256423        2.07026475
 C           -0.68473668       -1.84601438        1.29241935
 C           -2.42354177       -0.17944711        1.46700987
 C           -1.57285125        1.76313128        2.58477976
 C           -0.51535588        2.62046807        2.06455540
 C           -2.45602827        1.21180097        1.66707401
 C           -0.53901090        2.95704400        0.70901972
 C            1.84839011        2.33744294        0.56716811
 C            0.64801122        2.91510773       -0.02240124
 C            3.11196871        0.33912101       -0.12727167
 C            2.52711067        1.55848065       -0.45842223
 C            3.11343290       -2.05292090       -0.66036850
 C            3.17495485       -0.66837002       -1.08962940
 C            1.00438662       -3.06894510       -0.57621744
 C            2.10372810       -2.71811014       -1.45795044
 C           -1.16070997       -2.19363531        0.01778137
 C           -0.28343055       -2.70041882       -0.94797854
 C           -3.10841719       -0.75069073        0.40028232
 C           -2.44207113       -1.79041806       -0.36382415
 C           -3.83608336        0.09585155       -0.52844264
 C           -2.80167007        2.03853792        0.60739898
 C           -1.75655300        2.86715087        0.03180577
 C           -3.61901680        1.52315193       -0.46862651
 C           -1.77204699        2.63667050       -1.40439929
 C           -3.00897833        1.94096367       -1.72094725
 C            0.62177604        2.54377003       -1.43078023
 C            1.76990235        1.68870316       -1.69445696
 C           -0.59394694        2.27581832       -2.05091764
 C            2.38664155       -0.55585372       -2.31044658
 C            1.81794695       -1.87106624       -2.59702108
 C            1.63226351        0.59642331       -2.54538337
 C           -0.52864725       -2.46117692       -2.30232331
 C            0.54536884       -1.93927699       -3.13858145
 C           -2.74436489       -1.57067591       -1.77107468
 C           -3.51974691       -0.34398436       -1.87476019
 C           -2.96243096        0.78960372       -2.59983796
 C           -1.76288266       -1.82086628       -2.71792618
 C           -0.63152077        1.37916120       -3.11973321
 C            0.52418352        0.53401691       -3.38883677
 C            0.03142204       -0.76489718       -3.80816813
 C           -1.83298473        0.59244547       -3.38151225
 C           -1.41226060       -0.76894988       -3.65970792
