58
Modified xyz file
 C            1.54401444        0.08824905        3.98705763
 C            0.73854223       -1.11314741        3.88923143
 C            1.32949041       -1.98155794        2.88517119
 C            2.63577459       -0.03383189        3.03953739
 C            2.48098781       -1.28775916        2.32285337
 C            2.68008296        1.19054416        2.27087076
 C            0.71649389        1.20309457        3.55662249
 C            1.42106180        1.88612081        2.49424054
 C           -0.63720293       -0.70085641        3.70506605
 C           -0.60922427        0.69138875        3.28068638
 C           -1.47835632       -1.57007878        3.03226735
 C            0.47947132       -2.69075494        2.03884291
 C           -0.88975086       -2.69612146        2.31845570
 C            0.93159570       -3.02138835        0.76055177
 C            2.68652172       -1.30892608        0.94350426
 C            2.04894087       -2.28731866        0.18526157
 C            3.15714752        1.12112585        0.97188903
 C            3.20274583       -0.17736448        0.30525977
 C            2.64579522        2.07167500        0.00181899
 C            0.71046127        2.33333871        1.38504099
 C            1.44199861        2.72387250        0.26693249
 C           -1.23901172        1.04715017        2.08842495
 C           -0.63929408        1.98128623        1.22646209
 C           -2.48688616       -1.01335659        2.15292669
 C           -2.31042317        0.27054595        1.63983125
 C           -1.84129695       -3.09293387        1.29356962
 C           -2.88708548       -2.08162494        1.25509256
 C           -0.00996815       -3.31389023       -0.31322191
 C           -1.37595048       -3.30072869       -0.06269026
 C            1.74554046       -2.03475056       -1.21647269
 C            0.50874393       -2.72470245       -1.53821891
 C            2.91731755        0.04801891       -1.10723627
 C            2.85729569        1.48445372       -1.30976175
 C            2.00964248       -0.78038029       -1.76086351
 C            2.12966563        1.98490763       -2.37633400
 C            0.77533661        3.33648343       -0.78420015
 C            1.29049119        3.14239022       -2.12879162
 C           -1.32456724        2.40883738        0.08249657
 C           -0.67034865        3.21994631       -0.84480070
 C           -2.96371098        0.61687020        0.46290519
 C           -2.48949819        1.74969793       -0.30760890
 C           -3.15142338       -1.75794192       -0.13405694
 C           -2.26862564       -2.57495510       -0.95396549
 C           -3.35973299       -0.42736595       -0.47469867
 C           -0.36153153       -2.16046166       -2.45874992
 C           -1.78282715       -2.06876115       -2.15531188
 C            1.18501428       -0.25867041       -2.76574780
 C            1.35434317        1.06086501       -3.18828575
 C            0.02633197       -0.94035618       -3.14459835
 C            0.16542384        3.08389887       -3.04161392
 C           -1.04800504        3.13480090       -2.24735980
 C            0.20192353        1.78921899       -3.69716071
 C           -2.71491638        1.44733644       -1.71564550
 C           -3.02207152        0.03044943       -1.81127600
 C           -2.25783115       -0.78137938       -2.64202060
 C           -1.18936763       -0.19169895       -3.43149257
 C           -1.89651419        2.03716878       -2.66904665
 C           -1.11277426        1.18932794       -3.56163975
