58
Modified xyz file
 C            1.26710232       -0.14554763        3.73162601
 C            2.48317299       -0.42939848        3.00786310
 C            2.40245299       -1.79335345        2.50860916
 C            0.43296395       -1.33877285        3.68910352
 C            1.08875667       -2.31145334        2.83632238
 C           -0.91874067       -0.91190993        3.37052055
 C            0.44723323        0.97266147        3.30356187
 C           -0.92955935        0.54246328        3.44493424
 C            0.81002722        1.72361699        2.18246202
 C            2.83732032        0.42254457        1.89262344
 C            2.07920504        1.55078417        1.59590892
 C            2.83199945       -1.78281851        1.12014003
 C            3.26458316       -0.43180640        0.79803163
 C            2.12060160       -2.50227658        0.16693314
 C            0.35306378       -2.94781030        1.84751391
 C            0.94127466       -3.16135303        0.53179026
 C           -1.63321900       -1.55365592        2.35636323
 C           -1.05205223       -2.61046628        1.65465967
 C           -2.73958372       -0.91135469        1.80447867
 C           -1.91473537        1.23756944        2.76504267
 C           -2.98411326        0.47876578        2.14566226
 C           -0.17288789        2.50468594        1.55246120
 C           -1.52029650        2.28008385        1.83019617
 C            0.13399094        3.23626047        0.41103398
 C            2.38079387        2.19149631        0.40134568
 C            1.47478266        3.18689374       -0.12164341
 C            3.13216072        0.03426173       -0.51086323
 C            2.86626245        1.38984125       -0.71402806
 C            2.35534941       -2.20693802       -1.17151497
 C            2.83733418       -0.87848680       -1.52477232
 C            1.38990622       -2.61539936       -2.17502429
 C           -0.16046507       -3.27534708       -0.41552568
 C           -1.35787020       -2.78189042        0.24135462
 C            0.05154602       -2.97446947       -1.75012207
 C           -3.02765320       -1.07499685        0.38595711
 C           -2.17399907       -1.85098002       -0.39703493
 C           -3.38729331        1.17481037        0.93709180
 C           -2.47444658        2.28490335        0.73071535
 C           -3.53262807        0.19260110       -0.11841519
 C           -0.79559759        3.21253095       -0.70913527
 C           -2.02048992        2.55775918       -0.55876967
 C            1.38264604        2.99879187       -1.56000933
 C            2.14822182        1.81493127       -1.90627932
 C           -0.01597409        3.05994873       -1.93241864
 C            2.10334146       -0.43899573       -2.70327199
 C            1.28145778       -1.54748132       -3.15344187
 C            1.59073645        0.85431526       -2.74471858
 C           -0.88216833       -2.09651178       -2.43569439
 C           -1.93386279       -1.50272316       -1.73260662
 C           -0.12483787       -1.31075405       -3.40309865
 C           -3.21689508        0.57155466       -1.41130324
 C           -2.57751057        1.86217717       -1.63557122
 C           -2.56419160       -0.38672888       -2.28223019
 C           -0.47249114        2.21789828       -2.93402003
 C            0.35577996        1.09534384       -3.36043106
 C           -0.53343426       -0.01573385       -3.68273669
 C           -1.84759347        1.76526960       -2.88759430
 C           -1.87947718        0.37464955       -3.31203138
