58
Modified xyz file
 C            1.48529895       -0.00794723        4.31211936
 C            0.63371970       -1.14564453        4.00553682
 C            1.42178230       -2.07525277        3.23550706
 C            2.65216399       -0.09247533        3.45058185
 C            2.67672500       -1.41763507        2.88406969
 C            2.62044804        1.03800353        2.54715505
 C            0.75407644        1.19328536        3.95099617
 C            1.50580391        1.89350902        2.92663973
 C           -0.59420942       -0.63479482        3.42686346
 C           -0.60333420        0.80306534        3.64516453
 C           -1.06835165       -1.13969777        2.20929276
 C            0.86603849       -2.59974134        2.00551735
 C           -0.38187062       -2.16585582        1.54404917
 C            2.83924277       -1.55624283        1.44828896
 C            1.96802945       -2.64741573        1.06667661
 C            2.88731140        0.86656771        1.19072287
 C            2.88996235       -0.42568804        0.62592283
 C            2.62085890        1.96406246        0.38227412
 C            0.81159173        2.56511709        1.91819932
 C            1.47655284        2.79900506        0.71455571
 C           -1.30791310        1.58591937        2.75116931
 C           -0.58755145        2.56119625        1.93453549
 C           -2.03785409       -0.40607779        1.52052160
 C           -2.24568489        0.93062285        1.86632132
 C           -2.52776522       -0.86284585        0.29431893
 C           -0.71820796       -2.46276934        0.22081305
 C           -1.87241136       -1.92139658       -0.35126575
 C            1.65824685       -2.79713081       -0.26855962
 C            0.26707262       -2.99021965       -0.61619659
 C            2.66087919       -0.60250318       -0.74956623
 C            2.17079518       -1.82114722       -1.21590800
 C            2.66741204        1.82201658       -1.05352763
 C            2.63728541        0.48904094       -1.60895622
 C            0.71625868        3.00176033       -0.50987282
 C            1.54544187        2.56322734       -1.60822296
 C           -1.33026810        2.69606504        0.68484922
 C           -2.53117102        1.88844102        0.82010039
 C           -0.64104188        2.70501536       -0.52661002
 C           -3.36911319       -0.00574760       -0.42402004
 C           -3.14547949        1.42177018       -0.32272799
 C           -3.66338885       -0.25807341       -1.81920704
 C           -2.16096704       -2.23311637       -1.68609792
 C           -3.12261293       -1.44507671       -2.43301319
 C            0.18386053       -2.75599173       -2.04098730
 C            1.27724406       -1.84327697       -2.37029985
 C           -1.06461373       -2.53927823       -2.59134654
 C            1.69627603        0.50366272       -2.71919928
 C            0.94280428        1.74542451       -2.63385555
 C            1.01682135       -0.66188668       -3.07342192
 C           -1.23740784        2.14587054       -1.67004265
 C           -2.59412589        1.81139199       -1.60316103
 C           -3.17708305        0.89680689       -2.56793879
 C           -0.44077390        1.68009340       -2.73649877
 C           -2.49022859       -1.03810222       -3.67718963
 C           -1.15697835       -1.61267744       -3.69644329
 C           -0.19460128       -0.52864454       -3.75507140
 C           -2.34946607        0.40755383       -3.64183759
 C           -0.93552920        0.71585887       -3.61171710
