58
Modified xyz file
 C            1.39246529       -0.01684819        4.05813183
 C            2.55505168       -0.22756731        3.22116332
 C            2.46901806       -1.56540982        2.65741531
 C            0.54086799       -1.18852857        3.94063355
 C            1.25012009       -2.18418658        3.15188655
 C           -0.77183675       -0.74670856        3.48994519
 C            0.56989374        1.15134892        3.81969472
 C           -0.78682672        0.69753423        3.54839151
 C            0.93597738        2.07845955        2.76072235
 C            2.81429488        0.69017033        2.12684814
 C            2.10118461        1.88608401        2.01124885
 C            2.67296975       -1.46386009        1.21631966
 C            3.05175592       -0.10080114        0.92724982
 C            1.79719629       -2.12364917        0.36458576
 C            0.51327713       -2.96294010        2.27320667
 C            1.00161393       -3.12566710        0.91617721
 C           -1.35713497       -1.39910701        2.40697692
 C           -0.90393715       -2.68446525        2.13119402
 C           -1.98698940       -0.65670348        1.39018653
 C           -1.27366262        1.42819555        2.40002204
 C           -0.29397694        2.44470254        2.07257405
 C           -1.87277369        0.74239136        1.35684133
 C           -0.20861825        2.89608998        0.75921072
 C            2.20938251        2.57024175        0.80500352
 C            1.05031395        3.28884385        0.31108110
 C            2.72879217        0.46183627       -0.29758673
 C            2.73663738        1.84947002       -0.34073194
 C            1.43172425       -1.53071534       -0.85646574
 C            1.91671112       -0.24992820       -1.19806068
 C            0.53743129       -2.20124689       -1.70819621
 C           -0.11181422       -3.64777571        0.15949748
 C           -1.32223263       -3.33976990        0.91389938
 C           -0.31984874       -3.16519004       -1.18445364
 C           -2.57184011       -1.31995369        0.29705881
 C           -2.21160255       -2.63741572        0.01574798
 C           -1.75107080       -2.96788753       -1.32072051
 C           -3.13789111       -0.56952083       -0.73514155
 C           -2.03093663        1.41369334        0.15127075
 C           -1.17226185        2.47360351       -0.17059714
 C           -2.85350316        0.85161183       -0.81530399
 C           -1.10677782        2.93063985       -1.48870870
 C            1.27961669        3.50874316       -1.10318209
 C            2.26977420        2.52655601       -1.52618764
 C            0.15614318        3.41244107       -2.00864987
 C            1.52069231        0.35862562       -2.40343667
 C            1.67285600        1.73562184       -2.57566216
 C            0.54473868        2.50208012       -3.07071411
 C            0.16920040       -1.62578836       -2.91722078
 C            0.63557234       -0.29904603       -3.25250560
 C           -2.20606735       -2.20646137       -2.38368338
 C           -3.10331194       -1.10148418       -2.09071669
 C           -1.22172572       -1.72693458       -3.33978840
 C           -2.67880691        1.20681165       -2.21454185
 C           -1.71026130        2.14421660       -2.54985163
 C           -0.64078737        1.77573422       -3.47634417
 C           -0.48441971        0.44166016       -3.82601144
 C           -2.78530679       -0.01220082       -2.99802583
 C           -1.64905001       -0.41964577       -3.80169591
