58
Modified xyz file
 C            1.59031220        0.04918656        3.96600077
 C            0.74908844       -1.10708342        3.72224404
 C            1.29093300       -1.82645866        2.58293368
 C            2.55647920        0.12711868        2.88439902
 C            2.33321467       -0.99638789        2.00446235
 C            2.47935313        1.45547119        2.32160036
 C            0.74709061        1.22718572        3.87789372
 C            1.42341932        2.17878750        3.02504862
 C           -0.62571054       -0.65068650        3.64690205
 C           -0.58513952        0.79619239        3.49328828
 C           -1.49491211       -1.37532703        2.85102433
 C            0.39920611       -2.46009649        1.72064059
 C           -0.95553776       -2.47003723        2.06104525
 C            0.75605334       -2.60943829        0.37736308
 C            2.31284220       -0.78854673        0.63292074
 C            1.74374573       -1.77659394       -0.16126799
 C            2.59409173        1.61957998        0.94128750
 C            2.52458626        0.49344732        0.09570006
 C            2.27663930        2.87820536        0.43727290
 C            0.63830340        3.05128589        2.28848361
 C            1.23086219        3.63223283        1.10106448
 C           -1.19557448        1.39733097        2.38666258
 C           -0.71607441        2.62999563        1.93407727
 C           -2.38122151       -0.65285003        1.96275106
 C           -2.02501487        0.63227310        1.55578716
 C           -1.94455675       -2.76283791        1.03780232
 C           -2.84903916       -1.61564402        0.98105740
 C           -0.10558241       -3.30700509       -0.46941989
 C           -1.52005935       -3.36352441       -0.13979632
 C            0.01353077       -3.16807975       -1.91130621
 C            1.95938398       -1.72843071       -1.52926577
 C            1.04236248       -2.39984430       -2.43576827
 C            2.50804309        0.65821427       -1.30140126
 C            2.34380434       -0.46004645       -2.12190115
 C            2.08115819        3.05537704       -0.98201867
 C            2.19725428        1.90336476       -1.84794640
 C            0.17018190        3.83028841        0.13287174
 C           -0.94616774        3.00787844        0.55045955
 C            0.74273612        3.60340121       -1.17370544
 C           -2.22460597        1.01622666        0.22190212
 C           -1.47222250        2.05682332       -0.31755367
 C           -3.29669845       -1.14950379       -0.24631065
 C           -2.96024329        0.20796049       -0.64007316
 C           -2.27421119       -3.13630836       -1.35941992
 C           -1.32842083       -3.01551407       -2.45554947
 C           -3.17373872       -2.00026744       -1.41715662
 C           -2.59954211        0.19174538       -2.04554683
 C           -1.65958962       -1.81372567       -3.20770402
 C           -2.77103198       -1.16516267       -2.53639293
 C            0.74274814       -1.48001607       -3.51817818
 C            1.58373098       -0.30797840       -3.35314717
 C           -0.62661476       -1.02486351       -3.69543190
 C            1.09709403        1.99946498       -2.79310105
 C            0.05634038        2.71276469       -2.08668390
 C           -1.05986781        1.99463347       -1.65973042
 C           -1.49661935        0.93331552       -2.45720266
 C            0.74245451        0.86477487       -3.50060560
 C           -0.63904681        0.40773221       -3.43136110
