58
Modified xyz file
 C            1.31350182        0.01734620        4.05653392
 C            2.51165550       -0.22127119        3.28195952
 C            2.43907820       -1.57140778        2.74141201
 C            0.45129643       -1.14640845        3.91530578
 C            1.13816072       -2.11835941        3.07858005
 C           -0.86889264       -0.67863460        3.51670034
 C            0.52177870        1.19183264        3.75745905
 C           -0.85940947        0.76368483        3.60793915
 C            0.85566349        2.00213783        2.59491052
 C            2.82854463        0.66191153        2.17196428
 C            1.92849234        1.65890287        1.77669122
 C            2.83407809       -1.49662590        1.34260167
 C            3.42463116       -0.18481321        1.15587932
 C            1.98185056       -2.00409928        0.35952217
 C            0.41453474       -2.77577199        2.09405698
 C            0.94473174       -2.84597021        0.73820748
 C           -1.49812884       -1.27723900        2.42851614
 C           -1.00236573       -2.49430490        1.96606587
 C           -2.34643873       -0.52260212        1.60339782
 C           -1.43211708        1.51684633        2.51577113
 C           -0.39490109        2.38601615        1.97675226
 C           -2.28531093        0.88113774        1.62050062
 C           -0.42204821        2.67496382        0.61711752
 C            1.93534019        2.08472526        0.44432860
 C            0.76173219        2.61347340       -0.12804877
 C            3.51006475        0.31094716       -0.12826477
 C            2.97643482        1.63338421       -0.37115472
 C            1.98547360       -1.42867091       -0.91717136
 C            2.98952421       -0.50519555       -1.20716815
 C            0.84839554       -1.52808524       -1.74616314
 C           -0.18350957       -3.02707175       -0.15190509
 C           -1.39583563       -2.97042329        0.65768411
 C           -0.18029220       -2.42800536       -1.40855353
 C           -3.03973523       -1.17408821        0.57808320
 C           -2.54654919       -2.45433400        0.08866256
 C           -3.52173362       -0.41969951       -0.56878637
 C           -2.61487218        1.59778471        0.47432653
 C           -1.64866521        2.55611889       -0.03599429
 C           -3.23601560        0.93510180       -0.65569131
 C           -1.70949611        2.52985121       -1.48730809
 C           -2.66233862        1.49810707       -1.87457199
 C            0.70687879        2.90576898       -1.49414997
 C           -0.54022756        2.70644630       -2.21491022
 C            2.88351550        1.74878545       -1.81027791
 C            2.84227158        0.38734831       -2.33395589
 C            1.77237694        2.47504030       -2.37502171
 C            0.73408678       -0.72849963       -2.90323989
 C           -0.26088136        1.84359599       -3.35701811
 C            1.66423253        0.27455393       -3.15579757
 C            1.17450014        1.62308756       -3.38654977
 C           -2.38988110        0.68326628       -2.96922742
 C           -0.50570616       -0.57919169       -3.51585017
 C           -1.08515605        0.75227261       -3.60182766
 C           -1.38552275       -2.41905787       -2.11120363
 C           -2.62756108       -2.43392437       -1.35808468
 C           -3.38931298       -1.26082514       -1.74477296
 C           -1.57048885       -1.50133579       -3.20929243
 C           -2.76943193       -0.71852304       -2.93896825
