58
Modified xyz file
 C            1.17056857       -0.10036955        3.93935262
 C            2.38002493       -0.44935392        3.22427663
 C            2.21653807       -1.79910411        2.70817135
 C            0.31848637       -1.27804650        3.95030429
 C            0.84038926       -2.19482151        2.95615827
 C           -1.04651489       -0.82459675        3.82311147
 C            0.36920383        1.00652455        3.44750748
 C           -1.01944426        0.61541550        3.59839886
 C            0.75782951        1.67175753        2.28526382
 C            2.78895060        0.38788242        2.11666288
 C            2.07725170        1.54548597        1.82263364
 C            2.71628474       -1.81932271        1.34257923
 C            3.16794112       -0.47725275        1.01263703
 C            2.01502647       -2.54026193        0.39297947
 C            0.04548735       -2.58110732        1.87530501
 C            0.67908409       -3.02261712        0.71252045
 C           -1.87371996       -1.39661938        2.78113306
 C           -1.32989661       -2.29836901        1.86193359
 C           -1.94800571        0.90065827        2.51727519
 C           -2.70809832       -0.31381044        2.29218678
 C           -0.23139759        2.20173139        1.44502899
 C           -1.50318995        1.62726019        1.41668927
 C            0.13348894        3.06702487        0.42374648
 C            2.44543902        2.20734500        0.65909583
 C            1.53675436        3.17902135        0.09103961
 C            3.02363344        0.01821503       -0.28566771
 C            2.97900256        1.40665737       -0.43368962
 C            1.99127123       -2.06335412       -0.97609602
 C            2.50408218       -0.80623600       -1.29546075
 C           -0.05983846       -3.12108521       -0.53292195
 C            0.73114058       -2.48336106       -1.57087831
 C           -2.08782826       -2.60452724        0.73071493
 C           -1.42823359       -2.94264904       -0.52051992
 C           -3.34975487       -0.47680035        1.07609002
 C           -3.22783487       -1.76125173        0.40929099
 C           -2.18877483        1.51725697        0.20150695
 C           -3.18721276        0.54981757        0.05845511
 C           -0.61908451        3.04106971       -0.81879176
 C           -1.71527659        2.18654176       -0.93226444
 C            1.66612619        3.11923352       -1.35368494
 C            2.53751849        2.00178631       -1.68155714
 C            0.33028320        3.16210640       -1.92035574
 C            2.14857271       -0.26135786       -2.52948269
 C            2.20185447        1.17556425       -2.74188868
 C            0.12756078       -1.65449700       -2.51414436
 C            0.95643057       -0.76380750       -3.19742847
 C           -2.05145112       -2.17484545       -1.58490093
 C           -3.22027936       -1.51899589       -1.02265576
 C           -3.37734725       -0.09087927       -1.23175629
 C           -1.26613903       -1.46774934       -2.49693024
 C           -2.12698280        1.76576444       -2.19691904
 C           -2.76532189        0.47118588       -2.33888803
 C           -1.83981799       -0.34701012       -3.10474393
 C            0.08812150        2.48540491       -3.10858466
 C            1.08225904        1.54140396       -3.59819870
 C            0.39142169        0.31946643       -3.97515795
 C           -1.21918510        1.89695329       -3.32431788
 C           -1.02739701        0.56552533       -3.88416337
