58
Modified xyz file
 C            1.28400803       -0.10400721        4.52539188
 C            0.52803523       -1.25252912        4.05895239
 C            1.41751257       -2.07846850        3.27862894
 C            2.55896125       -0.10124088        3.82456949
 C            2.63609974       -1.31666154        3.04274499
 C            2.68323473        1.16846959        3.14150218
 C            0.56032487        1.09333284        4.13084787
 C            1.48952883        1.94972274        3.43549185
 C           -0.67747639       -0.76475269        3.42158667
 C           -0.64798517        0.68606333        3.43452723
 C           -1.14766590       -1.38015973        2.26904916
 C            0.95098508       -2.55370355        1.98975014
 C           -0.36655194       -2.33519771        1.59575856
 C            2.81621484       -1.23027689        1.60154179
 C            1.98916238       -2.27241315        1.02332686
 C            2.87114139        1.19167716        1.69697947
 C            2.87700699        0.00927605        0.95648819
 C            1.05493583        2.54553584        2.19167873
 C            2.09365507        2.30940285        1.20471989
 C           -1.05033015        1.36063503        2.27567180
 C           -0.27073679        2.42093896        1.78180620
 C           -2.09576150       -0.68361643        1.53389464
 C           -1.94833235        0.70673500        1.41689036
 C           -2.76009225       -1.39308236        0.54841038
 C           -0.68514452       -2.62260265        0.26313514
 C           -2.00005364       -2.40838094       -0.14991369
 C            1.60792636       -2.14050506       -0.30087112
 C            0.34981501       -2.60874690       -0.68294718
 C            2.53511712        0.06799048       -0.39836007
 C            2.18921146       -1.12159053       -1.04694048
 C            1.72245768        2.32803576       -0.13276611
 C            2.16353435        1.29718278       -0.96358081
 C           -0.55520089        2.92867706        0.52067184
 C            0.52897152        2.97368736       -0.44859183
 C           -2.42801393        1.37311928        0.28197807
 C           -1.74206997        2.48870610       -0.18137889
 C           -3.56177015       -0.67815080       -0.41648941
 C           -3.32968975        0.74030696       -0.57253647
 C           -2.32095712       -2.30851952       -1.56429232
 C           -3.37110334       -1.31317267       -1.71026696
 C            0.05499844       -2.64821857       -2.04445147
 C           -1.29616159       -2.37274120       -2.49878108
 C            1.99710042       -1.12499261       -2.42256482
 C            0.97108398       -1.99767039       -2.96865641
 C            1.83781586        1.35471493       -2.31741319
 C            1.91187036        0.14475148       -3.11322416
 C           -0.04653324        2.82036054       -1.77388704
 C           -1.48016061        2.63241552       -1.60710458
 C            0.64419352        2.08038801       -2.72487594
 C           -3.26381741        1.01262685       -2.00026730
 C           -3.21859243       -0.26277820       -2.69866521
 C           -2.18460896        1.84225131       -2.50608461
 C           -1.21465025       -1.38416161       -3.56860337
 C            0.18514140       -1.22905196       -3.92030461
 C            0.74983055        0.10581927       -3.98790606
 C           -0.08972616        1.24669318       -3.66416249
 C           -2.04305370       -0.26491316       -3.54989684
 C           -1.46363476        1.07279026       -3.51021020
