58
Modified xyz file
 C            1.45863212        0.11227970        4.40985282
 C            0.63814198       -1.07472032        4.53462812
 C            1.42713145       -2.18954627        4.03884309
 C            2.56772723       -0.21430854        3.52412916
 C            2.53243986       -1.63635906        3.27060231
 C            2.49364989        0.68393922        2.39223377
 C            0.66141686        1.13376577        3.75230260
 C            1.45415584        1.65471016        2.66767903
 C           -0.65661047       -0.78683191        3.92912216
 C           -0.63022767        0.57490834        3.41532558
 C           -1.30437675       -1.76965860        3.19668839
 C            0.77853303       -3.18373472        3.20996543
 C           -0.63933428       -3.04245456        2.93655107
 C            2.38923792       -2.09490907        1.89844254
 C            1.46999413       -3.21205605        1.92703778
 C            2.56562053        0.18367233        1.08994744
 C            2.27954985       -1.16891888        0.85852338
 C            2.28880509        1.08897845        0.06703071
 C            0.79916427        2.15143670        1.55840336
 C            1.56184561        2.23259510        0.41106038
 C           -1.15562052        0.85678365        2.14986819
 C           -0.56192645        1.86979534        1.38238664
 C           -2.02638523       -1.39346343        1.99332099
 C           -1.99104953       -0.07344394        1.52230409
 C           -0.82847451       -3.35212650        1.53427550
 C            0.46534317       -3.30048486        0.88556144
 C           -1.85242717       -2.46447362        1.03034777
 C            1.59140935       -1.53419863       -0.30941346
 C            0.57595208       -2.49205976       -0.24202929
 C            2.17302364        0.60061814       -1.23168914
 C            1.60355715       -0.66406914       -1.40337837
 C            2.10321268        1.53319877       -2.26253471
 C            1.04684328        3.01879077       -0.59848848
 C            1.57280185        2.83999566       -1.93331440
 C           -1.14014267        2.22786148        0.15630757
 C           -0.40016139        3.06305724       -0.69248782
 C           -2.37920170        0.15388098        0.19436603
 C           -2.13569078        1.40776342       -0.38542296
 C           -1.78274601       -2.08054378       -0.29261469
 C           -0.58078644       -2.26420913       -0.98270532
 C           -2.52151212       -0.96627013       -0.63500166
 C            0.70049483       -0.88148072       -2.45611024
 C           -0.45856578       -1.63347061       -2.21957276
 C            1.53646821        1.14351817       -3.53874255
 C            0.80577584       -0.10334356       -3.61125997
 C            0.50263386        3.13650872       -2.86329364
 C           -0.74083044        3.17682086       -2.10030834
 C            0.63920642        2.20828766       -3.97000370
 C           -2.61461601        1.65760118       -1.67580798
 C           -1.86690383        2.52306372       -2.57632919
 C           -2.71986516       -0.78381871       -1.98908344
 C           -1.65231078       -1.26283715       -2.84327974
 C           -3.08097576        0.53093004       -2.45516986
 C           -0.36865351        0.14761829       -4.43058899
 C           -0.55434569        1.58902888       -4.50672700
 C           -1.83467883        1.89793768       -3.89319142
 C           -1.62954207       -0.43120385       -4.02709191
 C           -2.57480649        0.65564910       -3.81146629
