58
Modified xyz file
 C            1.09958106       -0.11905639        4.16007590
 C            2.33143856       -0.36391186        3.43124501
 C            2.23011735       -1.68710793        2.84034615
 C            0.25877865       -1.29661250        4.00362978
 C            0.84702093       -2.11043119        2.96025336
 C           -1.10160447       -0.84701495        3.84277473
 C            0.29101471        1.04040904        3.82314708
 C           -1.09323046        0.61027495        3.81606138
 C            0.72602917        1.92723563        2.84527049
 C            2.72642431        0.55314962        2.37804147
 C            2.00831369        1.72408620        2.18093699
 C            2.81492004       -1.63058019        1.51570429
 C            3.12192008       -0.23724956        1.22208701
 C            2.23425285       -2.39760841        0.52006439
 C            0.13024514       -2.39830818        1.79390951
 C            0.84889762       -2.82755038        0.68155871
 C           -1.84103829       -1.27813191        2.67492132
 C           -1.18538526       -1.93505980        1.62817340
 C           -1.96187341        1.01713541        2.72172681
 C           -2.71222342       -0.16841925        2.35194137
 C           -0.21636212        2.43213886        1.85334144
 C           -1.46738708        1.84196847        1.70767274
 C            1.88903357        2.25313961        0.83773845
 C            0.54369115        2.78116399        0.67223083
 C            2.89306860        0.25387676       -0.06666312
 C            2.47078879        1.58311522       -0.23336616
 C            2.38672929       -1.97030698       -0.85353616
 C            2.77792677       -0.66063128       -1.12466737
 C            0.22686587       -2.80787750       -0.63008876
 C            1.27972881       -2.54489654       -1.59562852
 C           -1.77352369       -1.89934578        0.35318836
 C           -1.01316048       -2.20012992       -0.78677068
 C           -3.32952094       -0.17895037        1.12009048
 C           -3.01069786       -1.26836641        0.21865952
 C           -2.07408677        1.80152733        0.44629598
 C           -3.21924021        1.01161758        0.30672485
 C           -0.04822294        2.69058212       -0.58163784
 C           -1.36826961        2.23500791       -0.69380417
 C            2.12852616        2.03763142       -1.50123180
 C            0.80547820        2.61630839       -1.68473017
 C            2.65286025       -0.19900426       -2.43122930
 C            2.41885062        1.21088399       -2.65077285
 C            0.94727121       -1.98802360       -2.81897289
 C            1.79784203       -0.93507790       -3.34994960
 C           -1.39074612       -1.73120622       -2.05597850
 C           -0.43230956       -1.60507897       -3.06499989
 C           -3.45680064       -0.83427432       -1.08879726
 C           -3.67282339        0.60645034       -1.00587753
 C           -2.60693059       -1.07676109       -2.23045644
 C           -1.91872473        2.07633882       -1.96948336
 C           -3.06333160        1.21176038       -2.16390467
 C           -2.63574882        0.13174108       -3.03516356
 C            0.30243931        2.18790257       -2.97897045
 C            1.31963276        1.34908104       -3.59344094
 C            0.95275994        0.02145056       -4.04487881
 C           -0.42478099       -0.40554536       -3.89274006
 C           -1.03715511        1.84274324       -3.09936253
 C           -1.40726891        0.55379845       -3.68070846
