58
Modified xyz file
 C            1.50764752        0.06986253        4.28986700
 C            0.71170054       -1.13845170        4.19873972
 C            1.47543265       -2.11827123        3.44942534
 C            2.68180830       -0.10938744        3.44976980
 C            2.67574130       -1.46350530        2.95258982
 C            2.69465809        0.96678641        2.48338882
 C            0.72230790        1.15782219        3.72866414
 C            1.53092912        1.80525281        2.72992524
 C           -0.60255823       -0.76605268        3.70857270
 C           -0.55746644        0.63371708        3.31326518
 C           -1.27994432       -1.65077394        2.88715486
 C            0.83446466       -2.78730295        2.32922457
 C           -0.54101030       -2.70433100        2.19091611
 C            2.72838783       -1.66535692        1.51798270
 C            1.66408567       -2.58942973        1.15394677
 C            3.04530751        0.71881697        1.15322466
 C            3.01033904       -0.60058348        0.65971534
 C            2.84416602        1.78491020        0.27528495
 C            0.91376689        2.36103506        1.62021436
 C            1.78201989        2.71995903        0.60235147
 C           -1.06834290        1.00481590        2.06547797
 C           -0.39169957        1.94995023        1.27759262
 C           -2.21609418       -1.10709362        1.92591651
 C           -2.06037590        0.20983748        1.48616721
 C           -1.11192924       -2.80933538        0.86063361
 C           -2.39815714       -2.14770782        0.93826983
 C            1.08063025       -2.47052388       -0.11010308
 C           -0.30898900       -2.58608070       -0.26233007
 C            2.80256579       -0.83130439       -0.69996676
 C            1.82268621       -1.83298713       -1.09493729
 C            2.79860707        1.56687912       -1.15827609
 C            2.71672161        0.27339276       -1.63697726
 C            1.24274223        3.24050557       -0.62403526
 C            1.93723247        2.58773605       -1.72486853
 C           -0.92181635        2.29380824        0.02292062
 C           -0.17330767        3.08245844       -0.85469119
 C           -2.60713321        0.56080706        0.24952030
 C           -2.05190869        1.62923167       -0.47104675
 C           -3.00989988       -1.79544790       -0.24258273
 C           -3.37818971       -0.40606239       -0.40639712
 C           -0.93287405       -2.19999784       -1.46186986
 C           -2.33156675       -2.13203247       -1.47501543
 C            1.17278550       -1.37495548       -2.30315747
 C            1.72112793       -0.07093980       -2.64515632
 C           -0.18350505       -1.59915844       -2.48958627
 C            0.92615418        2.21115928       -2.69712053
 C           -0.30636578        2.86842904       -2.27964861
 C            0.87251891        0.90072357       -3.18048789
 C           -2.47381137        1.89796480       -1.78121088
 C           -1.50567658        2.37707493       -2.75406036
 C           -3.69283421       -0.26665469       -1.81233345
 C           -3.02324583       -1.36963998       -2.49688020
 C           -3.32712840        0.95585615       -2.48097752
 C           -0.81011274       -0.85548706       -3.49077465
 C           -0.30294761        0.47495248       -3.79732117
 C           -1.44161339        1.37592571       -3.79742167
 C           -2.25499184       -0.81114994       -3.57964855
 C           -2.65103876        0.58033452       -3.71183926
