58
Modified xyz file
 C            1.29381233       -0.01791666        4.07125598
 C            2.49873886       -0.20221812        3.29226977
 C            2.47475523       -1.54681866        2.73432178
 C            0.46579619       -1.20242275        3.89802182
 C            1.18224558       -2.13127031        3.03790348
 C           -0.86630019       -0.76154051        3.50885940
 C            0.46807838        1.13971849        3.79701729
 C           -0.90155286        0.67472045        3.66014297
 C            0.76325910        1.96788921        2.63603607
 C            2.77476094        0.70461165        2.19125888
 C            1.81418706        1.63907083        1.78927259
 C            2.89799606       -1.44252914        1.34539877
 C            3.42907272       -0.10099986        1.18017358
 C            2.09821725       -1.98401746        0.33575448
 C            0.48446552       -2.77504701        2.02652552
 C            1.04416215       -2.82392704        0.68140636
 C           -1.46950321       -1.33142520        2.39044217
 C           -0.93538707       -2.51292360        1.87877313
 C           -2.35338600       -0.57496415        1.60391760
 C           -1.51663953        1.44938067        2.60852778
 C           -0.50584003        2.33921597        2.05322005
 C           -2.38669080        0.82532109        1.72213546
 C           -0.58429228        2.63945263        0.69700295
 C            1.76130858        2.02509300        0.44631982
 C            0.53260542        2.41005793       -0.13014409
 C            3.50919537        0.41010303       -0.09824466
 C            2.83683037        1.66676596       -0.36457759
 C            2.16511986       -1.43996376       -0.95319920
 C            3.12665832       -0.45371800       -1.19315972
 C            1.10448743       -1.63327060       -1.85943264
 C           -0.06589569       -2.98828071       -0.23696862
 C           -1.29735267       -2.94235538        0.54450607
 C           -0.02357614       -2.37156791       -1.48316252
 C           -3.00282937       -1.19771375        0.53334489
 C           -2.43888134       -2.41416551       -0.03367424
 C           -3.53205389       -0.40284199       -0.56380061
 C           -2.78727496        1.59485257        0.63461660
 C           -1.86177934        2.60373019        0.14662628
 C           -3.42324323        0.97752868       -0.51296208
 C           -2.02971969        2.71266521       -1.28038927
 C           -2.99992608        1.71087381       -1.69708294
 C            0.40346969        2.52323376       -1.53199498
 C           -0.86168365        2.57665492       -2.11497388
 C            2.71786638        1.75533819       -1.80180336
 C            3.00217549        0.42735028       -2.33438002
 C            1.46457306        2.18740927       -2.36817787
 C            1.08491110       -0.95997578       -3.08479415
 C            2.00483053        0.12921048       -3.33190792
 C            1.20322469        1.32714879       -3.51012798
 C           -2.43668337        0.99056214       -2.82835249
 C           -1.18915408        1.64566619       -3.18549957
 C           -0.18998601       -0.55003429       -3.64513660
 C           -0.16423015        0.90297069       -3.75681010
 C           -1.21517442       -2.22848477       -2.19669911
 C           -2.47523400       -2.28991818       -1.47761078
 C           -3.23297416       -1.09609239       -1.80690892
 C           -1.33971115       -1.18343362       -3.19795675
 C           -2.51984829       -0.39675898       -2.86511889
