58
Modified xyz file
 C            1.56307167        0.01491884        4.41854069
 C            0.71910981       -1.16221894        4.32954028
 C            1.38420203       -2.11408382        3.45824584
 C            2.61500925       -0.12190231        3.42363863
 C            2.53555735       -1.45081152        2.86513991
 C            2.51337810        1.00082708        2.51834830
 C            0.75521187        1.16856245        4.05694512
 C            1.41078879        1.84382518        2.95493294
 C           -0.62618345       -0.72422581        3.99368703
 C           -0.61149309        0.72794246        3.87516971
 C           -1.38144812       -1.47758967        3.10105081
 C            0.62504030       -2.72086780        2.38049602
 C           -0.75259148       -2.55382405        2.34105550
 C            2.43118943       -1.58891193        1.42255380
 C            1.38216085       -2.55173772        1.14944760
 C            2.68303136        0.81287351        1.14988649
 C            2.53305225       -0.47065990        0.59528214
 C            2.38115370        1.91113844        0.35794387
 C            0.63925405        2.46787120        1.97455721
 C            1.26572790        2.75311026        0.76518560
 C           -1.37542885        1.34664822        2.89157990
 C           -0.75097218        2.31015522        1.99115841
 C           -2.33673388       -0.81414927        2.22628776
 C           -2.32399761        0.56652446        2.11195225
 C           -1.41548957       -2.62476171        1.05482864
 C           -2.46185775       -1.61776736        1.02711307
 C            0.69764337       -2.45876471       -0.06004407
 C           -0.65724744       -2.80080673       -0.09887489
 C            2.09845636       -0.59827743       -0.72925053
 C            1.22018423       -1.63914617       -1.06680506
 C            2.30596911        1.75516466       -1.07817884
 C            2.27746339        0.47075837       -1.60812032
 C            0.46754349        3.00031318       -0.42214176
 C            1.33858721        2.73261220       -1.55195606
 C           -1.49897290        2.28398362        0.73777180
 C           -2.42574518        1.16971207        0.79253606
 C           -0.84978760        2.55292297       -0.46128922
 C           -2.73695673       -1.01945361       -0.19816242
 C           -2.57093712        0.36906983       -0.33756092
 C           -1.33408814       -2.66544211       -1.30499765
 C           -2.52328993       -1.82525921       -1.31048036
 C            0.64943275       -1.68517316       -2.34040056
 C           -0.58402527       -2.31804875       -2.49466663
 C            1.91249466        0.32652272       -2.94296425
 C            1.12398151       -0.82791001       -3.33290139
 C            0.76296914        2.52069096       -2.79137828
 C            1.34860190        1.48464336       -3.61740140
 C           -1.34233810        2.00037808       -1.64821031
 C           -2.22676587        0.90796831       -1.58517490
 C           -0.67270394        2.30575139       -2.83759354
 C           -2.64463399       -1.24635909       -2.62988900
 C           -1.56200322       -1.79039642       -3.43133468
 C           -2.55738367        0.19007555       -2.73588008
 C            0.24769388       -0.41609076       -4.42263593
 C            0.31915624        1.02833148       -4.53051698
 C           -0.94779843        1.55883296       -4.05049385
 C           -1.15698821       -0.75526305       -4.35665494
 C           -1.87925422        0.45777403       -3.98891657
