58
Modified xyz file
 C            1.25101299       -0.13021470        4.11587298
 C            2.51280928       -0.46620465        3.48915369
 C            2.30694315       -1.69192107        2.72657896
 C            0.38106320       -1.28213159        3.96412002
 C            0.91669084       -2.07625600        2.87312014
 C           -0.96963011       -0.77662660        3.84690762
 C            0.50936320        1.02176103        3.62694277
 C           -0.88974169        0.67341267        3.72561323
 C            0.96158963        1.70098037        2.49530111
 C            3.11248538        0.50608375        2.59793618
 C            2.31744957        1.64092495        2.16276148
 C            2.82822020       -1.47311496        1.39363413
 C            3.51987726       -0.20000232        1.39667011
 C            2.03457710       -1.76998813        0.29508835
 C            0.14015336       -2.27333028        1.72978515
 C            0.75845290       -2.31813397        0.47031072
 C           -1.78582235       -1.24781215        2.74732063
 C           -1.25022540       -2.13307576        1.81718607
 C           -1.77821068        1.06983833        2.65356911
 C           -2.53117918       -0.10715753        2.25055961
 C            0.04547005        2.23392673        1.57411196
 C           -1.32387277        1.93281705        1.66522038
 C            0.53123617        2.92164752        0.45946244
 C            2.73178949        1.92468064        0.80179914
 C            3.30173406        0.69606729        0.27105606
 C            1.88222173        2.65850420       -0.00809439
 C            2.33900713       -1.15600180       -0.91332441
 C            2.77091051        0.17538317       -0.90725521
 C            1.78108635       -1.68825350       -2.06371257
 C            0.00084827       -2.64141274       -0.66235364
 C            0.54645569       -2.44192856       -1.93561058
 C           -2.02155886       -2.39000242        0.69348259
 C           -1.37316603       -2.81864952       -0.52880432
 C           -3.03896438       -0.17147588        0.95420236
 C           -3.03937886       -1.41618722        0.32350187
 C           -2.14351792        2.08535424        0.55062354
 C           -3.03525964        0.99463252        0.18308962
 C           -0.30825684        3.09392106       -0.71588445
 C           -1.63066428        2.68298756       -0.66820170
 C            1.78539737        2.30944280       -1.41556065
 C            2.24996749        1.06715455       -1.84811628
 C            0.50122601        2.79929855       -1.88932413
 C            1.68276819       -0.85307262       -3.24397293
 C            1.82358531        0.57994618       -3.08038687
 C           -0.31591219       -2.07112239       -3.05170231
 C            0.40062053       -1.11455100       -3.87578081
 C           -2.25409485       -2.45357285       -1.62591410
 C           -3.23175148       -1.50685564       -1.11202785
 C           -1.67460550       -1.89164405       -2.82903661
 C           -3.08272687        0.92976237       -1.27280545
 C           -2.21571135        1.97497722       -1.79742328
 C           -3.15070858       -0.30180077       -1.91220137
 C           -2.27878553       -0.57991527       -3.04258783
 C           -0.07839786        2.20317884       -3.00296783
 C            0.68880559        1.21087570       -3.73529674
 C           -0.22188251        0.16286952       -4.16717443
 C           -1.45768545        1.74156733       -2.94054926
 C           -1.53210681        0.45041980       -3.60891206
