58
Modified xyz file
 C            1.14389381       -0.00244363        4.02438465
 C            2.40600276       -0.32970064        3.40242207
 C            2.33290619       -1.72616307        3.00194013
 C            0.32254210       -1.20328360        3.97918277
 C            0.92819780       -2.07737399        2.99497097
 C           -1.04230846       -0.77572822        3.77279449
 C            0.34695107        1.06587437        3.45573972
 C           -1.02943277        0.67443575        3.64596538
 C            0.70208399        1.62688162        2.22940862
 C            2.81211971        0.41479598        2.22847706
 C            1.91825655        1.28881955        1.61496104
 C            3.07877081       -1.85404988        1.77343801
 C            3.52922365       -0.52165038        1.39132593
 C            2.41041785       -2.40413086        0.61463176
 C            0.27490510       -2.29137824        1.77514015
 C            1.02240781       -2.57196623        0.61554152
 C           -1.76158813       -1.28904380        2.62541833
 C           -1.11288555       -2.09474887        1.69272156
 C           -1.98018540        1.02569794        2.61144353
 C           -2.59759410       -0.20576983        2.14313747
 C           -0.27585011        2.29977421        1.48479551
 C           -1.63197649        1.97877720        1.66104469
 C            0.12947555        3.02052557        0.36220459
 C            2.11629876        1.61420543        0.27301394
 C            1.40264920        2.68452578       -0.24933861
 C            3.37435402       -0.41936702       -0.05077074
 C            3.02290455       -1.74751846       -0.51997232
 C            2.69786855        0.67369444       -0.59203557
 C            2.39180811       -1.85790763       -1.74365360
 C            0.37962463       -2.70822767       -0.61964299
 C            1.11908033       -2.55491560       -1.79485915
 C           -1.76984683       -2.32179069        0.49140005
 C           -1.01003614       -2.70672495       -0.67965495
 C           -3.06742521       -0.24792211        0.83212575
 C           -2.81129831       -1.39192382        0.06859113
 C           -2.51657592        2.12689999        0.59778329
 C           -3.30078028        0.97010777        0.19375483
 C           -0.81609691        3.30784808       -0.70434483
 C           -2.11737250        2.84278035       -0.59856771
 C            1.25913802        2.80263029       -1.68541498
 C           -0.11466775        3.18039492       -1.97170367
 C            2.26931576        0.58810280       -1.92275508
 C            2.22740975       -0.65921505       -2.54547628
 C            1.59127986        1.65625368       -2.50455379
 C            0.45542994       -2.11676806       -3.01177400
 C            1.16571019       -0.94159474       -3.49542143
 C           -1.69452611       -2.17175860       -1.85077786
 C           -2.78378348       -1.32693106       -1.38793027
 C           -0.95796837       -1.79891658       -2.96801534
 C           -3.45819373        1.01833082       -1.24746230
 C           -2.73906712        2.18394935       -1.73785491
 C           -3.05247973       -0.12722088       -2.03565406
 C           -0.62762571        2.27377154       -2.98722495
 C            0.46102082        1.39712667       -3.38782767
 C            0.18744101        0.09173310       -3.77987842
 C           -1.13315367       -0.47187196       -3.54059985
 C           -1.91537345        1.76371892       -2.85954486
 C           -2.16139606        0.34634999       -3.08504873
