58
Modified xyz file
 C            1.58665003       -0.06545522        3.95743313
 C            0.70329792       -1.21332624        4.03513313
 C            1.26102292       -2.25137257        3.18888982
 C            2.51166661       -0.29580573        2.86023500
 C            2.25434591       -1.61545722        2.32916201
 C            2.41628571        0.83142341        1.96128335
 C            0.77973854        1.08833530        3.60819146
 C            1.42091145        1.74794341        2.48723117
 C           -0.65407624       -0.76071513        3.77643189
 C           -0.59037382        0.64974498        3.43100361
 C           -1.50604462       -1.59360105        3.06524218
 C            0.39283868       -3.18232170        2.63442753
 C           -1.04002290       -2.91938604        2.68734327
 C            0.69238620       -3.70313871        1.31453987
 C            2.17875301       -1.79134598        0.94761660
 C            1.61799484       -2.96713173        0.46727624
 C            2.42042471        0.61242125        0.58949381
 C            2.30402014       -0.69334551        0.08166881
 C            2.04886020        1.68168164       -0.22109848
 C            0.61438863        2.39991544        1.56186028
 C            1.14685467        2.62171988        0.29062406
 C           -1.27498601        1.12839922        2.31810035
 C           -0.77390105        2.26697341        1.68461656
 C           -2.25476578       -1.05274891        1.94193441
 C           -2.11594862        0.28155123        1.58681492
 C           -1.60618539       -3.23447843        1.38651052
 C           -0.56212939       -3.83171216        0.58873550
 C           -2.26650525       -2.04224439        0.87994188
 C            1.06849014       -2.98929229       -0.86979628
 C           -0.34356514       -3.30534759       -0.73851046
 C            2.12223469       -0.87389382       -1.29967980
 C            1.40710782       -1.98801005       -1.76900499
 C            2.23746864        1.55809204       -1.59036676
 C            2.32872376        0.22063896       -2.14708568
 C            1.47887820        2.38845915       -2.51229688
 C            0.44965433        3.46678778       -0.56737747
 C            0.56713632        3.30428876       -2.00702523
 C           -1.57879484        2.87071240        0.72571643
 C           -0.94418670        3.72171240       -0.26210283
 C           -2.46373970        0.65311824        0.29089372
 C           -2.51358622        2.01439701        0.01840234
 C           -2.03713930       -1.61835039       -0.43400960
 C           -1.25670233       -2.41132541       -1.29136677
 C           -2.27126958       -0.27001792       -0.75181149
 C            0.51887021       -1.82209534       -2.82836849
 C           -0.90130874       -1.90048811       -2.53174737
 C            1.70816525        0.25144544       -3.46162260
 C            1.08674513        1.55330930       -3.63766804
 C            0.71882364       -0.75109370       -3.77675385
 C           -2.12314901        0.16636399       -2.07801684
 C           -1.49376049       -0.66547788       -2.99427018
 C           -0.33006177        1.34658818       -3.91146035
 C           -0.56287627       -0.08430623       -3.94925753
 C           -0.77555245        3.32721215       -2.56463881
 C           -1.70787759        3.61170891       -1.49050334
 C           -2.58570478        2.46136270       -1.35378671
 C           -1.25750892        2.14883576       -3.26025293
 C           -2.25101538        1.51814314       -2.39687407
