58
Modified xyz file
 C            1.52158123       -0.10872624        3.99388421
 C            0.68602620       -1.28853085        3.88514123
 C            1.21194610       -2.11746593        2.81756305
 C            2.54030054       -0.19248890        2.96242662
 C            2.31864782       -1.39749517        2.20006528
 C            2.53126140        1.05682340        2.24972833
 C            0.68943228        1.04577965        3.69384290
 C            1.34493600        1.79463160        2.65392139
 C           -0.68522641       -0.84278674        3.78541204
 C           -0.64944995        0.57438112        3.44025546
 C           -1.57926924       -1.65802483        3.11304815
 C            0.32203074       -2.80145540        1.99304652
 C           -1.05735433       -2.70244004        2.23373026
 C            0.77908762       -3.18972487        0.73629194
 C            2.39351308       -1.34606220        0.80821136
 C            1.83287311       -2.40895964        0.10276672
 C            2.82705744        1.06148099        0.89633245
 C            2.62250387       -0.11916734        0.15186395
 C            2.57925323        2.27415060        0.27283837
 C            0.58386634        2.37192327        1.64175354
 C            1.32632493        2.93224392        0.61153369
 C           -1.33237545        1.01979017        2.30517170
 C           -0.68297828        1.82896698        1.34970903
 C           -2.67833595       -1.01845679        2.41919688
 C           -2.49968209        0.35057224        1.96265704
 C           -2.01520365       -2.87601431        1.14570617
 C           -3.01582743       -1.83608828        1.26785167
 C           -0.17038946       -3.57472707       -0.28965745
 C           -1.56492299       -3.22085731       -0.12010992
 C            1.48288940       -2.24191019       -1.29462960
 C            0.28887777       -3.01980471       -1.55115998
 C            2.38687415       -0.02892408       -1.23301753
 C            1.58517218       -0.98244366       -1.86028193
 C            2.76222031        2.37344997       -1.15198592
 C            2.68644278        1.15008520       -1.91261567
 C            0.68141126        3.28592893       -0.62802820
 C            1.72080681        3.25264360       -1.64705441
 C           -1.23988439        1.98490295        0.05806344
 C           -0.57364466        2.75986487       -0.91198622
 C           -2.98860754        0.41780998        0.60785990
 C           -3.23428385       -0.94313021        0.14826114
 C           -2.42898050        1.31589764       -0.28499725
 C           -1.96922731       -2.42681842       -1.27705858
 C           -0.83154991       -2.35960884       -2.18726925
 C           -2.79499163       -1.30487325       -1.12428683
 C            0.66523606       -0.59104423       -2.84158376
 C           -0.60869558       -1.17848862       -2.88279633
 C            1.96646485        1.46426911       -3.13535918
 C            1.38059288        2.79159359       -2.97498666
 C            0.91047715        0.56959030       -3.57347850
 C           -1.00425411        2.75619205       -2.24261566
 C           -0.02200084        2.68899541       -3.31328487
 C           -0.20770459        1.40667054       -3.96633706
 C           -2.71776811        1.08128978       -1.62202472
 C           -2.73184075       -0.29655463       -2.08409683
 C           -1.71959712       -0.37809678       -3.11811521
 C           -2.07854124        1.87855441       -2.63934039
 C           -1.54552016        0.96268725       -3.63997655
