58
Modified xyz file
 C            1.33025995       -0.10277182        4.08454507
 C            2.58359468       -0.46408948        3.45251738
 C            2.36212143       -1.69869669        2.71214470
 C            0.44541701       -1.24827685        3.97361207
 C            0.98695775       -2.11526259        2.94149119
 C           -0.89876013       -0.73673566        3.80836614
 C            0.59803851        1.05387134        3.59037924
 C           -0.80729841        0.70361068        3.61485137
 C            1.09219777        1.77182887        2.50257035
 C            3.19239773        0.48609564        2.54439156
 C            2.44310603        1.66887267        2.16176948
 C            2.80385090       -1.48074494        1.34458106
 C            3.50828118       -0.21823306        1.31203105
 C            1.92770710       -1.78190646        0.31025069
 C            0.19405904       -2.44594520        1.84171270
 C            0.80890738       -2.55878156        0.58981541
 C           -1.70466791       -1.26309268        2.72653229
 C           -1.19651856       -2.27135674        1.91458454
 C           -1.62954674        1.04761754        2.46893270
 C           -2.36417532       -0.14136909        2.08254731
 C            0.20261646        2.35102328        1.59031696
 C           -1.10056034        1.84605552        1.46588809
 C            0.72960315        3.13586998        0.56607408
 C            2.84761922        1.96442304        0.80061021
 C            3.23716211        0.69295727        0.21526712
 C            2.04604690        2.80475343        0.04749483
 C            1.96913988       -1.04852032       -0.88081886
 C            2.53306694        0.23639124       -0.89646390
 C            1.19917065       -1.47814758       -1.96688855
 C            0.09585991       -3.09261285       -0.47143310
 C            0.31886981       -2.55094992       -1.80278952
 C           -1.96830353       -2.61509527        0.81073857
 C           -1.32769547       -3.28325489       -0.30237725
 C           -2.75273368       -0.29294870        0.75344301
 C           -2.84543976       -1.59364378        0.25600368
 C           -1.73047226        1.83976131        0.22061387
 C           -2.55219599        0.76380062       -0.14169780
 C           -0.10593754        3.47561284       -0.57276911
 C           -1.37234571        2.79281034       -0.72604142
 C            1.86062002        2.49785668       -1.35918163
 C            2.04983797        1.18616062       -1.79793381
 C            0.67178336        3.21652443       -1.77470213
 C            1.06750149       -0.65012948       -3.07866310
 C            1.40464288        0.75501063       -2.95303005
 C           -0.12514782       -0.74404865       -3.90358710
 C           -0.95955643       -2.56248903       -2.50482359
 C           -1.98847273       -2.85701519       -1.52283646
 C           -2.94688323       -1.81994952       -1.17651797
 C           -1.21674085       -1.59173198       -3.46319457
 C           -2.94714737        0.60856858       -1.47239177
 C           -3.08407143       -0.72987446       -2.02435856
 C           -2.39519351       -0.75076049       -3.30605728
 C           -1.52679782        2.49180168       -2.13648451
 C           -0.20512317        2.59480983       -2.74707734
 C            0.28991422        1.52846217       -3.48754866
 C           -0.64659974        0.60023682       -4.09174364
 C           -2.37877218        1.45989357       -2.50725282
 C           -2.02319378        0.61375429       -3.63541221
