58
Modified xyz file
 C            1.56839219        0.07893484        4.18600924
 C            0.76369416       -1.12947813        4.21738102
 C            1.48836425       -2.15885010        3.49629793
 C            2.65174880       -0.13758216        3.24238167
 C            2.65232910       -1.53571632        2.88065405
 C            2.51995139        0.84443044        2.18527453
 C            0.73867754        1.15081625        3.66369750
 C            1.40622712        1.71478713        2.50650416
 C           -0.57936218       -0.78373375        3.78537269
 C           -0.60599982        0.64016979        3.48355497
 C           -1.27404078       -1.65626088        2.95657726
 C            0.79765809       -2.91452643        2.46394654
 C           -0.57437438       -2.75071072        2.29156361
 C            2.64059511       -1.88397657        1.47265111
 C            1.66546088       -2.94260609        1.29806369
 C            2.67419877        0.46781060        0.85642553
 C            2.72746845       -0.89009431        0.49683402
 C            2.27804760        1.38710091       -0.10732165
 C            0.61851883        2.16904085        1.45301395
 C            1.17303821        2.20590672        0.16983970
 C           -1.32744959        1.08430362        2.37843625
 C           -0.76810567        2.08881465        1.57761455
 C           -2.23346750       -1.11037758        2.01368247
 C           -2.33472336        0.26711576        1.85261781
 C           -1.15580224       -2.91280291        0.96668413
 C           -2.23252161       -1.94824028        0.82538966
 C            1.11350711       -3.12403444        0.03727292
 C           -0.33430813       -3.17191202       -0.11879501
 C            2.45815786       -1.24950767       -0.82964496
 C            1.64493616       -2.35431536       -1.07752228
 C            2.61443636        1.10360300       -1.41960717
 C            2.58379756       -0.28567112       -1.82557558
 C            2.04578393        1.89762863       -2.48583012
 C            0.42096825        2.76177765       -0.87457918
 C            0.91072509        2.73869742       -2.17899152
 C           -1.55085266        2.67801742        0.59513448
 C           -0.92672310        3.05570088       -0.66327371
 C           -3.06976126        0.72573091        0.76570740
 C           -2.82899417        2.07119729        0.28816050
 C           -2.49022121       -1.35015052       -0.40895091
 C           -3.18495189       -0.13979731       -0.39998339
 C           -0.65995319       -2.58588852       -1.40668989
 C            0.58962985       -2.25140581       -2.07178972
 C           -1.74624987       -1.72249643       -1.53865434
 C            1.72856872       -0.36215765       -3.00107157
 C            1.64495557        0.98485654       -3.54422501
 C            0.60635239       -1.19466067       -2.97596298
 C           -0.02343739        2.60969082       -3.28482012
 C            0.38662934        1.46079150       -4.07927718
 C           -1.89446292        2.82263879       -1.72856953
 C           -2.99733779        2.07326550       -1.15392422
 C           -3.21584823        0.70165947       -1.58287367
 C           -1.43831104        2.47124457       -2.99244466
 C           -1.82766166       -0.97024325       -2.70980436
 C           -0.61626101       -0.75393205       -3.48832328
 C           -0.72932694        0.54174665       -4.13727317
 C           -2.60393187        0.25802777       -2.74416659
 C           -1.88837720        1.21562269       -3.57679755
