58
Modified xyz file
 C            1.23247550       -0.10118247        3.92289922
 C            2.48007128       -0.30734535        3.21165653
 C            2.43969265       -1.64235552        2.64615072
 C            0.37587229       -1.25099680        3.66040227
 C            1.07054117       -2.11901987        2.74087743
 C           -0.92456125       -0.75223194        3.28404360
 C            0.45178196        1.09340034        3.65298130
 C           -0.93532062        0.67574318        3.55873431
 C            0.93750790        2.05085138        2.76771171
 C            2.84706918        0.60706585        2.14559542
 C            2.14134037        1.79107619        1.98417676
 C            3.04967154       -1.58862626        1.33020085
 C            3.18394718       -0.18363353        0.97059428
 C            2.57235268       -2.46668054        0.37208083
 C            0.44169504       -2.53984043        1.57164671
 C            1.27138239       -3.08057194        0.59498500
 C           -1.53694132       -1.22128635        2.12352170
 C           -0.80101419       -1.98453059        1.19971511
 C           -2.69489784       -0.56794171        1.71206587
 C           -1.84469451        1.46879918        2.87352669
 C           -2.91507151        0.79803497        2.15976489
 C            0.00669377        2.78976156        1.92608326
 C           -1.35486147        2.54180404        2.01467238
 C            1.91588011        2.29959124        0.64540311
 C            0.61487262        2.94899867        0.61703628
 C            2.77594259        0.24526132       -0.29661188
 C            2.31550931        1.56213164       -0.46494382
 C            2.59419442       -2.05626498       -1.01551545
 C            2.64139776       -0.69954121       -1.32801457
 C            0.72509322       -3.42267291       -0.69582214
 C            1.63541208       -2.90108890       -1.70468135
 C           -1.30683407       -2.18305703       -0.10148229
 C           -0.59930125       -2.95391145       -1.02383973
 C           -3.11476477       -0.64378140        0.32825127
 C           -2.39662309       -1.43580861       -0.56010676
 C           -3.23512022        1.59831745        0.99473526
 C           -2.15298782        2.54519829        0.80026546
 C           -3.54652257        0.68849046       -0.08670404
 C           -0.15582231        2.85116035       -0.54188815
 C           -1.53391807        2.60534071       -0.45051957
 C            1.82284276        1.97432771       -1.69764978
 C            0.51907547        2.62147712       -1.74167053
 C            2.22032129       -0.30243078       -2.59498996
 C            1.92609270        1.09141896       -2.83614798
 C            0.83249707       -2.32097223       -2.76571687
 C           -0.56350625       -2.53677292       -2.41431956
 C            1.22164460       -1.09766993       -3.29878779
 C           -2.55862874       -1.21730894       -1.92980702
 C           -1.52755157       -1.64559431       -2.85874827
 C           -3.25771478        1.10196213       -1.37743547
 C           -2.23891796        2.12980602       -1.56133086
 C           -3.02788581        0.07991284       -2.37731493
 C           -0.19052802        2.11967176       -2.90462058
 C            0.67981242        1.16947974       -3.58120830
 C            0.21318329       -0.18770049       -3.81702238
 C           -1.13472745       -0.48274477       -3.64471209
 C           -1.54616964        1.85017895       -2.80748966
 C           -2.06097951        0.59430208       -3.33067643
