58
Modified xyz file
 C            1.55163812        0.01403570        3.97755272
 C            0.71049010       -1.13916785        3.71914619
 C            1.27031464       -1.86671466        2.59285463
 C            2.55457671        0.07155570        2.92971876
 C            2.36867904       -1.07563482        2.06495967
 C            2.49753421        1.39069614        2.33439761
 C            0.72092057        1.19756570        3.84878278
 C            1.41651567        2.12691381        2.98407222
 C           -0.66048613       -0.67626097        3.61779686
 C           -0.61132689        0.76937827        3.45976270
 C           -1.52020116       -1.39859864        2.81023619
 C            0.39124881       -2.46884318        1.69544164
 C           -0.96928797       -2.48075198        2.01082614
 C            0.77860991       -2.60987157        0.35925299
 C            2.44669609       -0.89504879        0.69142434
 C            1.83712562       -1.83893898       -0.13471460
 C            2.66260017        1.51132020        0.95502901
 C            2.80442808        0.35785712        0.17242348
 C            2.27028124        2.70411377        0.34766159
 C            0.64953393        2.98286083        2.20858236
 C            1.24051204        3.49710252        0.98956749
 C           -1.21399800        1.36988620        2.34955503
 C           -0.72393460        2.59509586        1.89744620
 C           -2.41112153       -0.67380860        1.92839151
 C           -2.06458313        0.61720808        1.53058859
 C           -1.94269469       -2.76061900        0.96960997
 C           -2.87208531       -1.63256031        0.94102274
 C           -0.08039383       -3.26190105       -0.52832213
 C           -1.49957379       -3.32287841       -0.21993548
 C            0.05686631       -3.05712346       -1.96297756
 C            2.11020042       -1.82336189       -1.49759678
 C            1.09439018       -2.26757920       -2.43159639
 C            2.97497639        0.49748288       -1.20345035
 C            2.72759118       -0.64207572       -2.06810307
 C            2.01452152        2.73981132       -1.08331665
 C            2.43551584        1.67275813       -1.86488127
 C            0.17417302        3.68773117        0.02591992
 C           -1.00974042        3.01854418        0.53951048
 C            0.68272516        3.29959119       -1.27874010
 C           -2.34937018        1.04113215        0.22319629
 C           -1.71688476        2.17030928       -0.30362184
 C           -3.35196100       -1.15997574       -0.27076168
 C           -3.10384873        0.22703765       -0.62692892
 C           -2.23634799       -3.06426620       -1.44356498
 C           -1.27168201       -2.84327193       -2.50782919
 C           -3.18583039       -1.96789117       -1.46671180
 C           -2.87071456        0.28109843       -2.06240741
 C           -1.57152032       -1.56429586       -3.12959290
 C           -2.81608178       -1.08075400       -2.55610862
 C            0.78311487       -1.13181076       -3.28681577
 C            1.88649502       -0.19411859       -3.16901797
 C            1.60379408        1.21292868       -2.96652789
 C           -0.53035847       -0.66462328       -3.35461583
 C           -0.19335713        2.68895028       -2.16620146
 C           -1.49313962        2.25664008       -1.67804924
 C           -1.95033709        1.19295836       -2.55052272
 C            0.29402603        1.66202918       -3.07450060
 C           -0.78923349        0.70815375       -3.28731691
