58
Modified xyz file
 C            1.58810381        0.12803438        4.02115121
 C            0.74306905       -1.04776025        3.91619357
 C            1.29522761       -1.90720042        2.88516115
 C            2.54938060        0.08171021        2.93331563
 C            2.41898654       -1.20370477        2.27796272
 C            2.37604301        1.27519499        2.12955639
 C            0.74956834        1.29195765        3.80853623
 C            1.38346855        2.10987443        2.79128684
 C           -0.63114512       -0.60535590        3.77924562
 C           -0.60885030        0.83384359        3.56630492
 C           -1.48943748       -1.37813390        3.01733862
 C            0.42133196       -2.61759436        2.06145585
 C           -0.95377908       -2.52581583        2.29648404
 C            0.88823820       -3.04001874        0.81512172
 C            2.57049386       -1.26995236        0.89814193
 C            2.06767573       -2.39759445        0.26044209
 C            2.33846598        1.13642412        0.74239901
 C            2.71513405       -0.08265153        0.16800398
 C            1.65979618        2.08703717       -0.03021744
 C            0.56212329        2.89605541        2.00186383
 C            0.90888991        3.07065150        0.60641329
 C           -1.31301861        1.39900708        2.50050810
 C           -0.86844967        2.63004219        2.02439065
 C           -2.40709526       -0.71132319        2.11446852
 C           -2.11981537        0.58412888        1.68959037
 C           -1.89374085       -2.82035045        1.22907492
 C           -2.81917069       -1.69937749        1.14196164
 C           -0.03567446       -3.28735736       -0.28536911
 C           -1.39167224       -3.09057690       -0.10470065
 C            1.95124824       -2.41317895       -1.18419035
 C            0.58943061       -2.81537315       -1.50765839
 C            2.86468995       -0.14844773       -1.21454796
 C            2.53482288       -1.38586464       -1.90798911
 C            1.52402924        1.88912773       -1.40987748
 C            2.35704190        0.94979376       -2.01724303
 C            0.40772322        2.40917903       -2.09508563
 C           -0.28793906        3.55501591       -0.04007476
 C           -1.41486778        3.15973293        0.79542761
 C           -0.56857855        3.10251992       -1.38328274
 C           -2.47594477        0.98914986        0.38841340
 C           -2.26695999        2.30913536       -0.00585937
 C           -1.92979643        2.58917040       -1.38764614
 C           -2.90430559       -1.30402849       -0.24390593
 C           -2.11050062       -2.23522363       -1.03122806
 C           -2.86152557        0.04439248       -0.57750974
 C           -0.14145149       -2.07318958       -2.43787670
 C           -1.48946126       -1.75788624       -2.18602985
 C            1.94801534       -1.03122382       -3.18644251
 C            2.03013589        0.41272355       -3.32280911
 C            0.57002659       -1.41183980       -3.44331417
 C            0.01504600        1.86859491       -3.31968505
 C            0.81782753        0.85521632       -3.97054567
 C           -0.03261159       -0.31145320       -4.16774622
 C           -2.27686702        1.66250474       -2.35631269
 C           -2.72043350        0.34375467       -1.93254937
 C           -2.07186560       -0.64027765       -2.78526525
 C           -1.37380135        1.47807633       -3.48186541
 C           -1.38727476        0.07070526       -3.84338594
