58
Modified xyz file
 C            1.28186845        0.05178877        4.55999618
 C            0.56453043       -1.12767693        4.11346203
 C            1.51801268       -1.97562303        3.43730896
 C            2.56897450        0.07009279        3.87749364
 C            2.69726396       -1.17242639        3.14819181
 C            2.65974396        1.31201190        3.14005907
 C            0.53452647        1.21451769        4.11926825
 C            1.46471094        2.08605794        3.44037159
 C           -0.61127832       -0.69618981        3.37364421
 C           -0.63482550        0.75735598        3.38299397
 C           -0.96080093       -1.35860402        2.19654623
 C            1.10687887       -2.58072311        2.19085370
 C           -0.21844406       -2.47528430        1.78241614
 C            2.84839927       -1.13841755        1.69969210
 C            2.12965463       -2.29156990        1.20169811
 C            2.79855284        1.27621822        1.68877457
 C            2.73706915        0.06596158        1.00373668
 C            1.02941723        2.68299017        2.20007637
 C            2.03007007        2.39223754        1.18793698
 C           -1.01201376        1.42494541        2.21592217
 C           -0.30318608        2.56927961        1.81946236
 C           -1.74294080       -0.67647818        1.25971295
 C           -1.76360973        0.72604028        1.26342154
 C           -2.26493012       -1.37926814        0.17410228
 C           -0.49431965       -3.02068083        0.53542342
 C           -1.66675716       -2.57980077       -0.19012324
 C            1.73713296       -2.31220321       -0.12902516
 C            0.59888365       -3.05694604       -0.42239206
 C            2.23344582        0.04409514       -0.30125624
 C            2.01040617       -1.19336676       -0.91914171
 C            1.59276629        2.38738821       -0.12996363
 C            1.76893566        1.22880745       -0.90373157
 C           -0.60351011        3.12911041        0.58625653
 C            0.47973273        3.17966476       -0.38098071
 C           -2.29526327        1.42066606        0.17382206
 C           -1.77095278        2.67028098       -0.13566835
 C           -3.06448590       -0.71548025       -0.74909773
 C           -3.02537043        0.73259219       -0.79450666
 C           -3.13037136       -1.20458596       -2.11923940
 C           -1.41530537       -2.86042039       -1.59568093
 C            0.02950158       -2.98604901       -1.75403419
 C           -2.16722297       -2.19855948       -2.55857706
 C            1.65444012       -1.23039695       -2.26346732
 C            0.69038521       -2.22651610       -2.70961966
 C            1.24014459        1.18271577       -2.20491656
 C            1.34960506        0.01076119       -2.94639012
 C           -0.10697479        3.16959008       -1.69744491
 C           -1.54389629        3.01841719       -1.52731856
 C            0.32643522        2.15242078       -2.62565302
 C           -2.92723860        1.13106230       -2.19498851
 C           -3.03540098       -0.06214759       -3.01208989
 C           -2.01248832        2.11084333       -2.55510350
 C           -0.85598442        1.75088134       -3.36965739
 C           -1.51435666       -1.68999663       -3.75542785
 C           -0.06358940       -1.66313591       -3.81254679
 C            0.35622635       -0.28102194       -3.97253810
 C           -1.99445842       -0.33794318       -3.98672671
 C           -0.83773866        0.54271726       -4.05533638
