58
Modified xyz file
 C            1.54946174        0.01388105        4.26428770
 C            0.67620279       -1.14537268        4.23974754
 C            1.33971188       -2.18593275        3.47789680
 C            2.67469294       -0.26025347        3.38527579
 C            2.57499259       -1.63021033        2.94553500
 C            2.70526160        0.77477030        2.37357957
 C            0.81167030        1.13495129        3.70464922
 C            1.58316815        1.67159869        2.61186260
 C           -0.63633758       -0.70288714        3.80794589
 C           -0.53419535        0.69702055        3.42298608
 C           -1.39866222       -1.54558641        3.01006959
 C            0.62046008       -2.81422372        2.38040360
 C           -0.74638659       -2.61705248        2.25848361
 C            2.59796095       -1.88888874        1.52056073
 C            1.44915845       -2.71867325        1.19214310
 C            3.01417745        0.45691619        1.04952452
 C            2.96535694       -0.88515200        0.62334626
 C            2.79787434        1.47600914        0.12352454
 C            0.92127697        2.18233267        1.50110232
 C            1.71087258        2.40614840        0.38414169
 C           -1.14623131        1.10800830        2.24020330
 C           -0.44385711        1.90356494        1.31404427
 C           -2.37622311       -0.94743332        2.11992524
 C           -2.27937165        0.41182675        1.82211484
 C           -1.33632940       -2.63336517        0.93114905
 C           -2.57604957       -1.89010928        1.03362216
 C            0.86704701       -2.57128418       -0.06859029
 C           -0.52510802       -2.45073724       -0.19077114
 C            2.76323011       -1.17317250       -0.72570720
 C            1.68288378       -2.08223271       -1.08102346
 C            2.80858356        1.19796137       -1.29969455
 C            2.80007740       -0.11917755       -1.72173544
 C            1.08901440        2.72982355       -0.87784297
 C            1.91485191        2.15614713       -1.93057825
 C           -1.06258135        2.24529040        0.09903029
 C           -0.29561512        2.68081223       -0.99072358
 C           -3.00750757        0.90014661        0.74732485
 C           -2.40588010        1.92128189       -0.09050950
 C           -3.16567031       -1.42665911       -0.12792170
 C           -3.65546280       -0.06051387       -0.12967843
 C           -1.09581379       -1.92974505       -1.36370668
 C           -2.45793301       -1.61732544       -1.38273494
 C            1.09628124       -1.61624517       -2.31872178
 C            1.91685318       -0.51623388       -2.80697301
 C           -0.28749126       -1.54901428       -2.44103304
 C            1.31887815        1.84265245       -3.14473150
 C            1.32583257        0.45721221       -3.60246815
 C           -0.84975648        2.71835386       -2.27119492
 C           -0.00262531        2.38389584       -3.40662850
 C           -2.93108827        1.74654493       -1.43645202
 C           -3.56263848        0.43810028       -1.48692460
 C           -2.95084574       -0.60284498       -2.29865360
 C           -2.15772961        2.13738950       -2.51717599
 C           -0.82716972       -0.80304884       -3.49102239
 C            0.01710392        0.17304654       -4.16293669
 C           -0.71379929        1.42541115       -4.23138165
 C           -2.15034527       -0.21519284       -3.36032893
 C           -2.01423157        1.20747016       -3.62663525
