58
Modified xyz file
 C            1.27369349        0.09094477        4.06092192
 C            2.41389365       -0.15511841        3.20180355
 C            2.22354962       -1.44746640        2.55887543
 C            0.37828911       -1.04858138        3.94866028
 C            0.91535853       -1.94386548        2.93458935
 C           -0.97723026       -0.54471492        3.78995045
 C            0.49334848        1.29198922        3.84864484
 C           -0.89965234        0.90339410        3.69516597
 C            0.82845583        2.16758882        2.73942859
 C            2.74054459        0.80256922        2.15835305
 C            2.01220295        1.98922656        2.01943005
 C            2.52620317       -1.29147231        1.14784117
 C            3.07595652        0.03623517        0.96651734
 C            1.62536309       -1.77111764        0.20634220
 C            0.06256379       -2.41541351        1.94189669
 C            0.53046154       -2.53088266        0.62748449
 C           -1.83100285       -1.21483074        2.92512811
 C           -1.30967925       -2.33738601        2.16750338
 C           -2.61779330       -0.44142700        1.98125777
 C           -1.42307342        1.56020781        2.50433577
 C           -0.39773153        2.45179679        2.00741935
 C           -2.16875061        0.82123765        1.59795782
 C           -0.30060543        2.70621884        0.64498481
 C            2.12868811        2.67622534        0.81483410
 C            0.91800091        3.21091808        0.21343290
 C            2.94528152        0.65294583       -0.26930323
 C            2.84987200        2.04201682       -0.27031234
 C            1.64124188       -1.22862392       -1.08217486
 C            2.40071684       -0.07184135       -1.33781387
 C            0.85348648       -1.81333906       -2.08536465
 C           -0.29738437       -3.10189229       -0.33262748
 C           -0.08608136       -2.77941708       -1.73275200
 C           -2.22581934       -2.55840484        1.06320176
 C           -3.07502551       -1.37206584        0.96660886
 C           -1.73243933       -3.14402732       -0.09425694
 C           -3.41457079       -0.87100853       -0.28211424
 C           -2.12685216        1.15519485        0.24092490
 C           -1.10414077        1.97999120       -0.25228281
 C           -2.93987610        0.45560624       -0.64789411
 C           -0.84808134        2.02734592       -1.63734154
 C            1.16632538        3.35759001       -1.20146193
 C            2.45470942        2.73530979       -1.47975382
 C            0.21139980        2.79452571       -2.12777295
 C            2.37340289        0.51971477       -2.60090122
 C            2.30766780        1.96544290       -2.69472385
 C            0.99733327        2.28346910       -3.23343814
 C            0.66312167       -1.15057581       -3.29465033
 C            1.45949641        0.01824966       -3.60204402
 C            0.52847528        1.09822231       -3.91204421
 C           -2.60871255        0.43858055       -2.05947466
 C           -1.48941667        1.13089370       -2.50299241
 C           -0.69428711       -0.83926224       -3.71078038
 C           -0.79253800        0.60064051       -3.59109625
 C           -1.38884686       -2.75351601       -2.38149294
 C           -2.40552440       -2.88445081       -1.35323519
 C           -3.28172962       -1.73198634       -1.44299027
 C           -1.73148186       -1.60755298       -3.20679099
 C           -2.83077687       -0.91405138       -2.55361320
