58
Modified xyz file
 C            1.58229311       -0.26599541        4.24428814
 C            0.70435822       -1.41893375        4.17713511
 C            1.17133565       -2.26252572        3.09405970
 C            2.56228378       -0.38817471        3.17697113
 C            2.27133906       -1.58846912        2.42945166
 C            2.57959821        0.86217623        2.45806074
 C            0.78448907        0.91417858        3.96288833
 C            1.49594295        1.69145374        2.97081180
 C           -0.62162703       -0.95064411        3.81136596
 C           -0.56093068        0.48831305        3.64149733
 C            0.01781471       -2.61367529        2.28859503
 C           -1.08086994       -1.75164757        2.68901779
 C            0.20712464       -2.79671836        0.92882733
 C            2.23806992       -1.52730016        1.03951511
 C            1.44653357       -2.46085090        0.37780299
 C            2.78487687        0.85296391        1.08279676
 C            2.59988413       -0.34707560        0.36451429
 C            2.55655498        2.06507791        0.44476951
 C            0.76124418        2.42982653        2.04681887
 C            1.45705782        2.88229391        0.92821912
 C           -1.16580551        1.03708263        2.51846718
 C           -0.61411336        2.18435672        1.93330404
 C           -1.82012007       -1.12968743        1.68263410
 C           -2.04565967        0.24479574        1.77611200
 C           -0.91268218       -2.70838059        0.11241717
 C           -1.87885401       -1.74095322        0.42348141
 C           -0.78734863       -3.18912659       -1.18323282
 C            1.62072389       -2.60684518       -0.98919186
 C            0.54080829       -3.19705776       -1.76402839
 C            2.53919959       -0.32771751       -1.04417150
 C            2.13285546       -1.47082818       -1.73327506
 C            2.56247615        2.12453969       -0.99502024
 C            2.48211934        0.88412940       -1.72888160
 C            0.73660754        3.39227313       -0.22586575
 C            1.45329619        2.96835760       -1.41398270
 C           -1.34153950        2.83741027        0.94095299
 C           -0.64858347        3.35501882       -0.22814262
 C           -2.84967094        0.85510763        0.82588211
 C           -2.58339507        2.23953831        0.48276943
 C           -2.64633323       -1.14751547       -0.59027785
 C           -3.14934162        0.14112214       -0.40251861
 C           -1.71112650       -2.74511836       -2.20178478
 C           -2.62072552       -1.66574507       -1.88455388
 C            0.46916281       -2.50008724       -3.03456891
 C            1.30872782       -1.31880381       -2.92679156
 C           -0.93161045       -2.34708511       -3.36715816
 C            1.48577881        1.06005243       -2.77441386
 C            0.73289172        2.26489674       -2.45975081
 C            0.81014267       -0.05579459       -3.25539864
 C           -1.35273460        2.87674097       -1.41111694
 C           -2.63298690        2.36016585       -0.96425358
 C           -3.09506532        1.09804572       -1.50159768
 C           -0.65792997        2.20670371       -2.42284798
 C           -2.58910989       -0.74227254       -3.00430851
 C           -1.40213345       -1.04419199       -3.78462345
 C           -0.51297401        0.10061858       -3.67915238
 C           -2.58324040        0.67936964       -2.71907550
 C           -1.29907920        1.21261177       -3.16344151
