58
Modified xyz file
 C            1.32746418        0.04904871        4.08047406
 C            2.48031164       -0.21218544        3.24661274
 C            2.46554298       -1.62535204        2.91195848
 C            0.45980056       -1.11967810        4.01538411
 C            1.16457333       -2.15905997        3.29058853
 C           -0.83473445       -0.67789030        3.52444625
 C            0.51507571        1.20882272        3.78241900
 C           -0.86245587        0.75681419        3.68586522
 C            0.78945515        1.97989352        2.57951209
 C            2.64050697        0.52997083        2.00563362
 C            1.72528397        1.52604417        1.65165944
 C            2.91278311       -1.75538618        1.53343002
 C            3.08155635       -0.41429317        0.99324706
 C            2.34393871       -2.73449438        0.73151659
 C            0.45959013       -2.92334879        2.37012802
 C            1.16191580       -3.43525037        1.20669687
 C           -1.35131477       -1.23911820        2.35475515
 C           -0.85589322       -2.47320880        1.92652585
 C           -2.12024525       -0.45595987        1.47375698
 C           -1.49320005        1.53745345        2.65151035
 C           -0.49717019        2.44121549        2.09964431
 C           -2.33813647        0.90649808        1.75329700
 C           -0.63450891        2.80028732        0.76312998
 C            1.53409693        1.82112562        0.29908306
 C            0.45811009        2.63458604       -0.09212802
 C            2.75309754       -0.16168687       -0.33308344
 C            2.25843296        1.10149855       -0.65834070
 C            2.15401766       -2.46234167       -0.68187843
 C            2.53552941       -1.23223075       -1.20942807
 C            0.21195909       -3.50605612        0.11088039
 C           -1.01186007       -2.86272602        0.53551345
 C            0.86388284       -3.00352368       -1.07991744
 C           -2.41143981       -0.95937245        0.19525026
 C           -1.62536899       -1.97858245       -0.33612379
 C           -3.26245301       -0.26054731       -0.65375508
 C           -2.82627373        1.72593950        0.74532776
 C           -1.92223270        2.73975601        0.22628990
 C           -3.52026502        1.13143191       -0.37210402
 C           -2.11823500        2.82052871       -1.21153067
 C           -3.18805259        1.89903434       -1.56137581
 C            0.31277545        2.98836867       -1.43187339
 C           -1.00714211        2.93547711       -2.03787050
 C            2.20470276        1.47109525       -1.99522575
 C            1.26020705        2.48789464       -2.40756175
 C            2.10437147       -0.95249861       -2.50313809
 C            2.17008034        0.41426194       -2.98268790
 C            0.11479157       -2.27816679       -2.00139518
 C           -1.19325590       -1.90404443       -1.66748816
 C            0.82502788       -1.50617268       -2.91988928
 C           -3.06944739       -0.38410089       -2.08758440
 C           -2.98549192        0.95807187       -2.64586383
 C           -1.92888047       -1.14193052       -2.57122846
 C           -0.90493776        2.12007274       -3.24149440
 C            0.50698498        1.96666387       -3.53995792
 C            1.02043253        0.64403419       -3.84158619
 C            0.13751051       -0.50472635       -3.71898659
 C           -1.76453630        1.03916867       -3.42653364
 C           -1.22627769       -0.31112487       -3.53450567
