58
Modified xyz file
 C            1.44262698       -0.32793384        4.63967505
 C            0.56502284       -1.45227015        4.38647702
 C            1.14632764       -2.21135714        3.29832573
 C            2.50819930       -0.36024415        3.64631047
 C            2.21267159       -1.42743170        2.71302070
 C            2.64960566        0.97810236        3.13169238
 C            0.67719601        0.87859758        4.39706383
 C            1.55178395        1.77297855        3.67302786
 C           -0.70753746       -0.93427898        3.90278427
 C           -0.58475101        0.49806520        3.77386514
 C            0.05818583       -2.57261076        2.42877826
 C           -1.05740077       -1.69331984        2.72344427
 C            0.33298487       -2.73522472        1.08979908
 C            2.15070852       -1.17494801        1.33710754
 C            1.44433434       -2.07989172        0.54404041
 C            2.64969135        1.17616773        1.69255980
 C            2.38823895        0.11148729        0.82858147
 C            0.98836468        2.50350566        2.56277471
 C            1.94191568        2.41708859        1.47464780
 C           -0.95369383        1.10403102        2.57060638
 C           -0.35455966        2.32498961        2.24244706
 C           -1.65050517       -1.04682450        1.63580427
 C           -1.60582115        0.35398684        1.56561890
 C           -0.77450700       -2.80213639        0.27678541
 C           -1.70625073       -1.76886083        0.43916200
 C           -0.53050349       -3.28216935       -0.99007234
 C            1.46339590       -1.91947844       -0.84408098
 C            0.72569890       -2.85251013       -1.57290845
 C            1.97302488        0.41699230       -0.47563310
 C            1.62202097       -0.62058415       -1.35684025
 C            1.44848007        2.68212188        0.20967482
 C            1.69812862        1.75437046       -0.80807411
 C           -0.78419946        2.98329020        1.10453344
 C            0.24961455        3.38796199        0.17260749
 C           -1.99074903        0.99355885        0.37723897
 C           -1.81479090        2.37176140        0.29435169
 C           -2.24972269       -1.16227732       -0.69686836
 C           -2.23193312        0.23932193       -0.78942008
 C           -1.55590015       -3.10838327       -1.98369178
 C           -2.40704777       -1.94582661       -1.84359267
 C            0.50044151       -2.64012700       -2.98114037
 C           -0.87531566       -3.02988188       -3.26024648
 C            1.24245388       -0.31982120       -2.68124722
 C            0.70352545       -1.31144545       -3.50573249
 C            1.28663156        2.07170782       -2.09905234
 C            1.01807333        1.00841138       -3.04718052
 C           -0.39507920        3.61063228       -1.09772215
 C           -1.71944683        3.00560541       -1.00296093
 C            0.24930615        3.07647081       -2.27666317
 C           -2.30660258        0.87242612       -2.05145925
 C           -0.21049932        1.35015329       -3.76482789
 C           -1.90587548        2.19701385       -2.18016462
 C           -0.79599856        2.47569279       -3.07279519
 C           -2.46807822       -1.31124525       -3.14053919
 C           -1.49914164       -1.96151719       -4.01103193
 C           -0.46968509       -0.98310367       -4.29822006
 C           -2.21659811        0.10561285       -3.21144671
 C           -1.06645990        0.31359755       -4.08919359
