58
Modified xyz file
 C            1.44913175        0.11483205        4.22912645
 C            0.61926448       -1.04951591        3.96909088
 C            1.40821791       -1.98615599        3.20471255
 C            2.61895834        0.01731464        3.37306505
 C            2.66564958       -1.33425393        2.86496045
 C            2.56966175        1.11401195        2.41965263
 C            0.70164593        1.28826974        3.81693030
 C            1.49866981        2.00466157        2.84162972
 C           -0.63288865       -0.58595402        3.40580513
 C           -0.63235479        0.86277454        3.42997237
 C           -1.17202396       -1.21088541        2.28655504
 C            0.85025714       -2.52052558        1.97553325
 C           -0.43378137       -2.17209133        1.57499858
 C            2.87223762       -1.52107193        1.44578671
 C            1.89901907       -2.49293971        0.98009517
 C            2.75238153        0.86068544        1.05558692
 C            3.13674814       -0.42624889        0.62975048
 C            2.29140968        1.81015979        0.12867560
 C            0.82523210        2.73532704        1.87737954
 C            1.32652815        2.73574190        0.51546537
 C           -1.26703625        1.52719917        2.38374132
 C           -0.62353845        2.61865677        1.79223557
 C           -2.21497286       -0.56008540        1.63280780
 C           -2.24290966        0.84488479        1.65087590
 C           -2.88586805       -1.27098774        0.64302437
 C           -0.80213975       -2.46496804        0.26107084
 C           -2.12921658       -2.25414695       -0.10526330
 C            1.54382181       -2.45851312       -0.36600064
 C            0.19396709       -2.58085496       -0.72139566
 C            3.21211048       -0.70063617       -0.72979703
 C            2.41824997       -1.80985211       -1.23909549
 C            2.47734768        1.60613096       -1.23389066
 C            3.10886271        0.38568295       -1.67509644
 C            1.37518003        1.89469844       -2.14306047
 C            0.19845135        2.98655049       -0.37045405
 C           -1.00165752        3.03389601        0.44985273
 C            0.17093230        2.36498744       -1.61916112
 C           -2.91689271        1.55106163        0.65417393
 C           -2.19382230        2.57236301       -0.07872860
 C           -3.77580212       -0.58865375       -0.27359941
 C           -3.76063467        0.85457943       -0.29720064
 C           -2.49767212       -2.13302759       -1.50513142
 C           -3.48143267       -1.06413076       -1.61496027
 C           -0.15040477       -2.54784044       -2.07361225
 C           -1.51482624       -2.24658750       -2.47566960
 C            1.98872518       -1.47406590       -2.58536851
 C            2.39172967       -0.09966520       -2.84230850
 C            1.37696198        0.88335301       -3.18648411
 C            0.74206144       -1.89857992       -3.02159239
 C           -1.45559882       -1.24754885       -3.53001186
 C            0.16923899        0.44251040       -3.70503421
 C           -0.05842564       -0.98931004       -3.82440768
 C           -1.04841883        1.93479640       -2.15909207
 C           -2.23757212        2.19367421       -1.47821484
 C           -3.35717266        1.27910849       -1.63015239
 C           -3.18830765        0.09274587       -2.44882750
 C           -1.06649640        1.04614821       -3.23630509
 C           -2.11078606        0.03229082       -3.32263848
