58
Modified xyz file
 C            1.36220237       -0.00413198        3.67340758
 C            2.57294671       -0.34134563        2.96637694
 C            2.47251682       -1.72914581        2.54219118
 C            0.49854801       -1.17531784        3.67130003
 C            1.13454450       -2.19823266        2.85977940
 C           -0.84453149       -0.74366258        3.32957656
 C            0.58240765        1.11930317        3.19918784
 C           -0.80150624        0.68770960        3.08404662
 C            1.09226008        1.98078425        2.22566750
 C            2.93466738        0.44992236        1.80867526
 C            2.26168133        1.63914060        1.51960263
 C            2.93352931       -1.81485000        1.16713587
 C            3.22184347       -0.46354379        0.71429671
 C            2.28813010       -2.68701254        0.30576219
 C            0.39577490       -2.84537370        1.87112118
 C            1.06755694       -3.34099595        0.75320311
 C           -1.61059296       -1.54422624        2.50104570
 C           -0.99337763       -2.68702031        1.84057826
 C           -2.49871633       -0.91425496        1.54262727
 C           -1.58675101        1.26103219        2.08499637
 C           -2.33589589        0.43605615        1.22829256
 C            0.18900256        2.88986908        1.67543909
 C           -1.22297205        2.53812682        1.67115891
 C            0.48270720        3.56323253        0.42390726
 C            2.50196880        2.19455026        0.26209831
 C            1.62095374        3.21114863       -0.28090490
 C            2.88619032       -0.06484405       -0.57818749
 C            2.87847529        1.30283183       -0.82462753
 C            2.06613717       -2.27474238       -1.06755551
 C            2.12427218       -0.92044773       -1.38824025
 C            0.32517345       -3.71548765       -0.43654800
 C            0.97290572       -3.07743161       -1.57466390
 C           -1.74434051       -2.93659864        0.61672303
 C           -2.73497970       -1.87715191        0.48150287
 C           -1.09337372       -3.42287027       -0.50990643
 C           -3.08462145       -1.41238538       -0.77732462
 C           -2.81323910        0.91575328       -0.00297471
 C           -3.25696897        0.01674906       -0.97350336
 C           -1.82474264        3.10533649        0.48800007
 C           -0.77401498        3.74865900       -0.28603517
 C           -2.55736315        2.22845865       -0.39524294
 C           -0.89704409        3.29801085       -1.66366591
 C           -2.10339275        2.49151862       -1.75351816
 C            1.54216682        3.00873510       -1.72010423
 C            2.28522650        1.80118199       -2.04442351
 C            0.24173364        2.91440098       -2.36354729
 C            1.26279002       -0.39856803       -2.37023297
 C            1.40946045        0.92252692       -2.78769305
 C            0.22921282        1.68899430       -3.14903036
 C           -0.05388888       -2.42967615       -2.35982201
 C           -1.34389709       -2.81225636       -1.80433107
 C           -2.41989267       -1.94678229       -1.95904341
 C            0.13577507       -1.11953395       -2.78928406
 C           -2.97322796        0.29838145       -2.36941606
 C           -2.18061060        1.47232186       -2.69384614
 C           -0.96520547        1.01359439       -3.35467372
 C           -2.29442193       -0.86181985       -2.91766475
 C           -0.96319201       -0.43862019       -3.31168878
