58
Modified xyz file
 C            1.62352444        0.08077691        4.03317156
 C            0.80061214       -1.09336122        3.80711622
 C            1.40502745       -1.86592646        2.73901904
 C            2.63401716        0.12181558        2.98985331
 C            2.50424609       -1.07811817        2.19603847
 C            2.52635025        1.39680769        2.31828811
 C            0.77764258        1.24775327        3.86387819
 C            1.46551487        2.15680524        2.97268698
 C           -0.56925314       -0.65476652        3.64091043
 C           -0.54677074        0.79188020        3.48116004
 C           -1.38906972       -1.39734410        2.81102268
 C            0.57739066       -2.55338485        1.85127549
 C           -0.80847693       -2.47140272        2.01109306
 C            1.10032913       -2.88773417        0.60522218
 C            2.63999257       -1.00010543        0.81489776
 C            2.20943478       -2.10426228        0.08548924
 C            2.63216255        1.44425634        0.92796818
 C            2.72954120        0.25390240        0.18633073
 C            2.24579530        2.62421095        0.29107650
 C            0.69082066        2.99784769        2.18989143
 C            1.26361462        3.46712496        0.94498886
 C           -1.16570064        1.38127325        2.37371462
 C           -0.68904726        2.60751151        1.91059975
 C           -2.30869088       -0.69206261        1.94442893
 C           -2.01324166        0.61587617        1.56392655
 C           -1.68972983       -2.66518847        0.86602063
 C           -2.73232366       -1.64851792        0.94385517
 C            0.21475179       -3.19530400       -0.50706542
 C           -1.16075604       -3.01168776       -0.37618289
 C            2.07370708       -2.02745782       -1.35657014
 C            0.89362752       -2.79120029       -1.73185497
 C            2.75857123        0.32000399       -1.20868480
 C            2.36132300       -0.83367374       -1.99978870
 C            1.93759921        2.62308837       -1.12857154
 C            2.26336471        1.50709994       -1.88474384
 C            0.17576350        3.67459723        0.01052815
 C           -1.00674045        3.03199327        0.55992607
 C            0.63957098        3.26454477       -1.30290187
 C           -2.35099068        1.05185432        0.27373773
 C           -1.75224294        2.19576968       -0.26282824
 C           -3.29394327       -1.17394155       -0.22743002
 C           -3.12579135        0.23334703       -0.55462631
 C           -1.94132123       -2.82546574       -1.51678641
 C           -3.08974082       -1.93913546       -1.44258944
 C            0.14324325       -2.40728769       -2.83504978
 C           -1.29515033       -2.59415838       -2.79789080
 C            1.50602883       -0.36826546       -3.08177554
 C            1.37871984        1.07554971       -2.95673518
 C            0.41119760       -1.13032997       -3.48016555
 C           -0.28663134        2.70522162       -2.17204369
 C           -1.58032654        2.30264588       -1.64359388
 C            0.13405944        1.67775749       -3.10947805
 C           -2.98723378        0.33732659       -1.99908290
 C           -3.00784240       -1.00543079       -2.55179206
 C           -1.91749917       -1.43041390       -3.41003292
 C           -0.86634354       -0.48215316       -3.73412929
 C           -2.11089385        1.27761996       -2.52199742
 C           -1.03179223        0.86181862       -3.41372440
