58
Modified xyz file
 C            1.58732251       -0.25667452        4.35572770
 C            0.74848256       -1.43902812        4.34237373
 C            1.26740194       -2.33173454        3.32335203
 C            2.58250349       -0.40521948        3.30606204
 C            2.30996985       -1.62962475        2.59148109
 C            2.59234437        0.82017378        2.55115487
 C            0.75534811        0.87849951        3.99715032
 C            1.48365708        1.64571398        3.01100749
 C           -0.58049985       -1.03650248        3.91469328
 C           -0.55063155        0.38261929        3.62162919
 C            0.13224061       -2.82747869        2.57275138
 C           -0.98827220       -1.94106267        2.85848998
 C            0.34962396       -3.17746127        1.24973563
 C            2.24035267       -1.60732694        1.19611035
 C            1.51771601       -2.62339650        0.57647084
 C            2.81173619        0.76883754        1.18185162
 C            2.51164076       -0.42168173        0.48504073
 C            2.63802085        1.98112561        0.53215629
 C            0.76677452        2.33465768        2.03617382
 C            1.51445104        2.79774824        0.95612446
 C           -1.08915330        0.82315983        2.41748518
 C           -0.57317165        1.97848856        1.82126467
 C           -1.71179015       -1.43376495        1.78308251
 C           -1.87835745       -0.04709016        1.65668442
 C           -0.75689307       -3.05976965        0.31797219
 C           -1.82194571       -2.22827815        0.64454666
 C            1.19941749       -2.52389233       -0.83182559
 C           -0.17803086       -2.96205819       -1.00883536
 C            2.30847979       -0.38534487       -0.91245754
 C            1.65406998       -1.43955134       -1.56611512
 C            2.71404599        2.02765022       -0.90382277
 C            2.57729065        0.78484891       -1.62461834
 C            0.84863202        3.28976691       -0.23506927
 C            1.67168688        2.92861613       -1.37342674
 C           -1.26334515        2.52636177        0.74412514
 C           -0.52804059        3.17259619       -0.33329545
 C           -2.57667713        0.45376035        0.55484279
 C           -2.34993392        1.76817096        0.14424332
 C           -2.65611222       -1.80348854       -0.37785840
 C           -3.16894234       -0.44805579       -0.32620967
 C           -0.93433735       -2.39793524       -2.03172083
 C           -2.26205599       -2.05575185       -1.75502432
 C            1.07987236       -1.23784162       -2.82273988
 C           -0.24820361       -1.77759470       -3.07733011
 C            1.80394533        1.09124421       -2.81264293
 C            1.05003366        2.30325197       -2.52473772
 C            1.16748320        0.05791287       -3.47550207
 C           -1.13268902        2.76666081       -1.59556930
 C           -2.39119856        2.11215340       -1.27117955
 C           -0.33947266        2.28341176       -2.64169450
 C           -3.46217972       -0.04317869       -1.69227557
 C           -2.97300042       -1.08993734       -2.57753667
 C           -2.95470650        1.22598136       -2.17729724
 C           -0.93216803       -0.86965050       -3.98285366
 C           -0.11919768        0.32836562       -4.09540202
 C           -0.90520240        1.44562910       -3.60019424
 C           -2.28681416       -0.45567500       -3.68244490
 C           -2.27152061        0.97864403       -3.43410398
