58
Modified xyz file
 C            1.44372645       -0.18994593        4.44191463
 C            0.57997884       -1.35544563        4.42647957
 C            1.14951398       -2.32073636        3.50207311
 C            2.55437818       -0.44990417        3.54410359
 C            2.31022206       -1.71526596        2.87281335
 C            2.73108852        0.73143978        2.72652943
 C            0.69778547        0.92495508        3.88353292
 C            1.53246522        1.54580383        2.87623705
 C           -0.70180091       -0.94827303        3.88008427
 C           -0.60580887        0.44127046        3.47814592
 C            0.07620923       -2.79188919        2.65177442
 C           -1.06951008       -1.91767228        2.86814878
 C            0.38625409       -3.14541024        1.34547408
 C            2.44200304       -1.77816596        1.48259818
 C            1.61906179       -2.64016444        0.75193572
 C            3.23571007        0.56019202        1.44701108
 C            3.11662287       -0.75209130        0.81756096
 C            2.88256518        1.53965521        0.43643460
 C            0.93262257        2.04348341        1.72334085
 C            1.76000294        2.34040564        0.64355006
 C           -1.07973061        0.78997326        2.21715620
 C           -0.42339848        1.77619861        1.48039412
 C           -1.76842142       -1.47518638        1.75107058
 C           -1.91750842       -0.09593747        1.54364290
 C           -0.65284482       -3.03148572        0.33673212
 C           -1.80703889       -2.31754855        0.64391781
 C            1.35630272       -2.37545139       -0.65931803
 C           -0.00583992       -2.78185575       -0.94230827
 C            2.88259543       -0.53386785       -0.60519478
 C            3.05534522        0.88691758       -0.84970243
 C            1.85550126       -1.22262032       -1.24676124
 C            2.44790306        1.45325401       -1.95707746
 C            1.20695898        2.99594882       -0.44684822
 C            1.74451240        2.70760864       -1.76522241
 C           -0.98857096        2.19063784        0.27214622
 C           -0.23911241        3.01637811       -0.56580691
 C           -2.55193397        0.33652872        0.37924022
 C           -2.10469364        1.51618466       -0.23939686
 C           -2.63579353       -1.95822062       -0.40619549
 C           -3.21374965       -0.63390273       -0.37082200
 C           -0.73603548       -2.11482911       -1.91993025
 C           -2.11955398       -2.10519852       -1.75219112
 C            1.13751723       -0.60228014       -2.27411236
 C            1.59279533        0.61621797       -2.78145653
 C           -0.12354346       -1.08644734       -2.65359553
 C            0.64808208        2.74903479       -2.71315618
 C           -0.55891543        3.10279700       -1.98197166
 C            0.66846338        1.50408565       -3.46584029
 C           -2.62631157        1.90749002       -1.47710642
 C           -1.76396450        2.58646803       -2.43010256
 C           -3.65116761       -0.34522504       -1.72180911
 C           -2.94901655       -1.27477180       -2.60068335
 C           -3.45073296        0.98662348       -2.23939754
 C           -0.85890958       -0.39408878       -3.62310240
 C           -0.54034097        0.99513898       -3.91016488
 C           -1.73994433        1.76710781       -3.63033161
 C           -2.30821930       -0.50115633       -3.63750666
 C           -2.85377534        0.84323892       -3.55693020
