58
Modified xyz file
 C            1.42041778        0.06837849        3.94003762
 C            2.62033274       -0.08758787        3.14548431
 C            2.60136705       -1.42304242        2.57271792
 C            0.59644719       -1.11543895        3.74050229
 C            1.28374370       -1.98918841        2.80994151
 C           -0.74525086       -0.67691312        3.41138753
 C            0.58839363        1.23173291        3.71439535
 C           -0.77511922        0.76995002        3.52006106
 C            0.90341906        2.13202821        2.61766323
 C            2.88475003        0.84685161        2.06439509
 C            2.07044147        1.96655756        1.86695040
 C            3.08537413       -1.33143260        1.20514536
 C            3.31728704        0.07246437        0.90870057
 C            2.49517843       -2.13062692        0.24205347
 C            0.57576176       -2.51719072        1.73355878
 C            1.27482033       -2.84961685        0.57322501
 C           -1.39979083       -1.26112698        2.33391454
 C           -0.81000989       -2.34257638        1.66995471
 C           -2.36189748       -0.50587315        1.66714953
 C           -1.35384065        1.52834577        2.42231453
 C           -0.34292407        2.44403255        1.92980198
 C           -2.14109813        0.86185973        1.49801975
 C           -0.29549204        2.75292300        0.57149751
 C            2.14544188        2.61365418        0.63796704
 C            0.93081924        3.17532534        0.07073872
 C            3.06076085        0.57883440       -0.36447792
 C            2.83613744        1.95167780       -0.45399553
 C            2.34267851       -1.61666052       -1.10558277
 C            2.61977536       -0.28108798       -1.38731754
 C            0.55152640       -3.07437761       -0.66721464
 C            1.15326690       -2.22639409       -1.68379215
 C           -1.51294746       -2.94853474        0.62922126
 C           -0.82527148       -3.20474558       -0.62671636
 C           -3.23631313       -1.15888547        0.80877909
 C           -2.84288420       -2.45910650        0.30209488
 C           -3.82022579       -0.41358390       -0.29272253
 C           -2.29368250        1.42001619        0.23292963
 C           -1.26289915        2.21482167       -0.29861585
 C           -3.29076460        0.90631127       -0.59082327
 C           -1.12314952        2.35308531       -1.69471304
 C            1.12871996        3.26984067       -1.35703898
 C            2.34690468        2.53921382       -1.68312335
 C            0.08321220        2.79436619       -2.23115061
 C            2.12119389        0.23429800       -2.58443705
 C            2.05624652        1.66584372       -2.79477581
 C            0.71532018        1.97857742       -3.25327214
 C            0.34824964       -1.46775388       -2.53412098
 C            0.91647734       -0.35373744       -3.15653186
 C            0.06895024        0.73288786       -3.62658728
 C           -1.61552173       -2.60229192       -1.68425809
 C           -2.95369018       -2.41857988       -1.14631104
 C           -3.69696703       -1.22514832       -1.49504192
 C           -1.04505022       -1.61751555       -2.49601743
 C           -3.13147935        0.98512689       -2.02315268
 C           -1.93199305        1.60075224       -2.54203496
 C           -1.29800204        0.63640524       -3.43014797
 C           -3.17612678       -0.37314077       -2.54272928
 C           -1.86102419       -0.65400391       -3.09389965
