58
Modified xyz file
 C            1.51264079       -0.05781437        4.21376755
 C            0.70618091       -1.26279238        4.12137569
 C            1.54181158       -2.28786062        3.53701384
 C            2.65065016       -0.23047259        3.32881212
 C            2.71184093       -1.62856202        2.96848208
 C            2.53640044        0.75241609        2.26870200
 C            0.71974309        1.04133312        3.69455604
 C            1.44251679        1.64680638        2.59237502
 C           -0.54403392       -0.90954155        3.46422091
 C           -0.61046148        0.54114718        3.41886748
 C           -0.99967714       -1.63885333        2.35829187
 C            0.97265798       -3.12789706        2.50494852
 C           -0.34023920       -2.80460230        1.96689879
 C            2.76677612       -1.98049268        1.56264467
 C            1.90022010       -3.12195560        1.38687503
 C            2.68376858        0.37111849        0.94168899
 C            2.73187808       -0.98707290        0.58529211
 C            2.30515934        1.29205795       -0.02860935
 C            0.69089059        2.16654288        1.54024721
 C            1.23562783        2.15943436        0.25013062
 C           -1.29984930        1.11703611        2.36660911
 C           -0.69744788        2.16766433        1.67330047
 C           -1.87188664       -1.01715282        1.45594165
 C           -2.20700563        0.32280484        1.68003148
 C           -2.09019487       -1.58954757        0.19181311
 C           -0.29339552       -3.14020723        0.55837347
 C            1.11145896       -3.18136018        0.17410744
 C           -1.18771567       -2.52978128       -0.31242811
 C            2.38939488       -1.35316599       -0.72310594
 C            1.50340905       -2.42398025       -0.92599205
 C            2.62560289        0.98607031       -1.34171667
 C            2.57906643       -0.40891837       -1.73141363
 C            2.06631622        1.77724399       -2.41321908
 C            0.49915684        2.73934520       -0.79505741
 C            0.95616589        2.65225530       -2.10953756
 C           -1.45023762        2.81842928        0.70554037
 C           -0.82341897        3.12787342       -0.56793184
 C           -3.10894243        0.96507096        0.84281735
 C           -2.78902233        2.32023252        0.43003671
 C           -2.99133320       -0.99049549       -0.68752773
 C           -3.62115416        0.25858960       -0.31149693
 C           -2.65638812       -0.90553310       -2.10047321
 C           -0.82007009       -2.46147408       -1.65536914
 C            0.59359093       -2.36680742       -1.97703798
 C           -1.55029494       -1.60058358       -2.56916724
 C            1.80725430       -0.48848809       -2.95950394
 C            1.64181989        0.86404980       -3.46292631
 C            0.75239146       -1.38571958       -3.03296756
 C           -0.57898309       -0.93459978       -3.42580112
 C           -0.01065858        2.50087263       -3.18362622
 C            0.33453901        1.29634034       -3.92066908
 C           -0.79013237        0.38306122       -3.82222137
 C           -1.82078905        2.94063266       -1.61516380
 C           -3.02944716        2.42747872       -0.99741148
 C           -3.56319853        1.15868549       -1.45419858
 C           -2.88874903        0.46340615       -2.53633114
 C           -1.41866538        2.42968707       -2.84233940
 C           -1.91553777        1.12804577       -3.28051783
