58
Modified xyz file
 C            1.49909153        0.07714162        4.14191250
 C            0.67753855       -1.10378456        3.94973570
 C            1.47136774       -2.06881949        3.22514909
 C            2.66710696       -0.05718386        3.28629508
 C            2.66522035       -1.39312788        2.73772024
 C            2.66484811        1.05767876        2.36485212
 C            0.74011100        1.22460803        3.67529723
 C            1.54525725        1.92393325        2.69898761
 C           -0.58744389       -0.68346737        3.37145360
 C           -0.56597638        0.76613202        3.25931757
 C           -1.14990676       -1.41811094        2.32590592
 C            0.86054987       -2.72848951        2.09325572
 C           -0.50060303       -2.57425519        1.85439036
 C            2.70109463       -1.55201510        1.29260868
 C            1.76015097       -2.60237194        0.95991690
 C            2.94073279        0.84979117        1.01621545
 C            2.76795238       -0.43451718        0.46435913
 C            2.76628180        1.95939154        0.19805099
 C            0.90379866        2.57532091        1.64890756
 C            1.68065833        2.86848654        0.52835106
 C           -1.13378513        1.34208344        2.13041132
 C           -0.47797075        2.40330287        1.48673233
 C           -2.09805660       -0.77996263        1.51711581
 C           -2.10352827        0.61632567        1.44064454
 C           -2.81238959       -1.52725838        0.58519001
 C           -0.96876623       -3.17428882        0.69193011
 C           -2.27282734       -2.80585675        0.18428345
 C            1.19795612       -2.63532751       -0.31333469
 C           -0.05409642       -3.24112806       -0.43812409
 C            2.36816717       -0.57909774       -0.87006651
 C            1.58768406       -1.67897320       -1.25815034
 C            2.79012959        1.79259981       -1.23708017
 C            2.58313363        0.46421747       -1.76590919
 C            1.04723864        3.28354808       -0.71228014
 C            1.76915120        2.65982265       -1.80625921
 C           -1.10970585        3.03055947        0.41380455
 C           -0.33602334        3.35431486       -0.77355661
 C           -2.86345744        1.25961642        0.46963919
 C           -2.40268862        2.53873277       -0.03106243
 C           -3.34270396       -0.88228808       -0.60536273
 C           -3.37387286        0.50374783       -0.66021331
 C           -2.21155736       -2.83086706       -1.26780481
 C           -0.82959445       -3.07370163       -1.65486491
 C           -2.89362730       -1.64519261       -1.76173929
 C            0.99946013       -1.69909903       -2.52577296
 C           -0.28477810       -2.35626502       -2.70966381
 C            1.71764213        0.60319727       -2.92035749
 C            1.03165916        1.88162924       -2.78577373
 C            1.00247837       -0.50051037       -3.35088820
 C           -1.03214313        2.78623256       -1.92001430
 C           -2.37894547        2.46271327       -1.48390278
 C           -2.95866683        1.19069765       -1.87447731
 C           -0.36326820        1.92007633       -2.78740273
 C           -2.38028419       -0.98323054       -2.87173695
 C           -1.14002240       -1.45611421       -3.46668667
 C           -0.34900767       -0.29647486       -3.83833365
 C           -2.36310880        0.47129033       -2.90272171
 C           -1.06765479        0.89458767       -3.41889310
