58
Modified xyz file
 C            1.17167665       -0.00777862        3.93120312
 C            2.39423649       -0.37643597        3.25626476
 C            2.25689948       -1.76225817        2.83228266
 C            0.32123876       -1.18788658        3.95292037
 C            0.85050583       -2.09705259        2.95850663
 C           -1.04009071       -0.73189286        3.81274037
 C            0.37315623        1.06548089        3.37632625
 C           -0.99799695        0.71733882        3.67070841
 C            0.67147821        1.56592447        2.10873642
 C            2.79089675        0.37416457        2.08465803
 C            1.92377068        1.31423965        1.52159995
 C            2.88636454       -1.88016928        1.52823285
 C            3.44769966       -0.57498450        1.20917156
 C            2.22231641       -2.58959648        0.53549198
 C            0.11828994       -2.37579721        1.80074719
 C            0.80164129       -2.87652560        0.69694603
 C           -1.82243212       -1.22581149        2.69941820
 C           -1.18835037       -1.88521539        1.64287235
 C           -2.01546915        1.07103396        2.70319328
 C           -2.74108025       -0.15168188        2.39218833
 C           -0.34259901        2.17761206        1.36028270
 C           -1.69292278        1.93106029        1.65588540
 C           -0.00250407        2.86320748        0.19867087
 C            2.17995111        1.74678878        0.21651901
 C            1.29225639        2.61911597       -0.40810956
 C            3.62227472       -0.21677083       -0.11817861
 C            3.14712148        1.08742644       -0.54515438
 C            2.45412927       -2.24634739       -0.85823638
 C            3.26000345       -1.15827175       -1.16710711
 C            0.18549820       -2.82745734       -0.61241313
 C            1.20598053       -2.45081727       -1.57988343
 C           -1.78449599       -1.84611935        0.37167957
 C           -1.09639024       -2.31442733       -0.75387913
 C           -3.43186797       -0.20708725        1.19521272
 C           -3.00778740       -1.18783061        0.20815393
 C           -2.65693524        2.09712967        0.66234050
 C           -3.63862501        1.04142281        0.48393588
 C           -0.97730449        3.00481065       -0.86987418
 C           -2.27801460        2.57548461       -0.65632305
 C            1.10735113        2.56254826       -1.85365554
 C           -0.31248146        2.70613187       -2.12823627
 C            3.00306742        1.02466840       -1.98773282
 C            2.96888317       -0.38325630       -2.35835177
 C            1.86638257        1.67781581       -2.60889181
 C            0.85390971       -1.62407740       -2.64735259
 C            1.72560555       -0.61677072       -3.07082975
 C            1.19842706        0.68975030       -3.44151194
 C           -1.50138849       -1.92962245       -2.03138567
 C           -0.48938409       -1.55324640       -3.00834802
 C           -3.38099596       -0.67008487       -1.09785654
 C           -3.71549490        0.73563260       -0.93134209
 C           -2.94093539        1.73693203       -1.64688950
 C           -2.64585462       -1.05235719       -2.20842232
 C           -0.92622487        1.87152833       -3.05797276
 C           -0.15772824        0.81899126       -3.70995068
 C           -0.97135448       -0.38130065       -3.71800364
 C           -2.26238852        1.35637542       -2.79891229
 C           -2.28191528       -0.04368368       -3.19208436
