58
Modified xyz file
 C            1.64023823       -0.15723168        4.23367608
 C            0.79655447       -1.32770356        4.39011185
 C            1.25499903       -2.32881894        3.44700514
 C            2.56374755       -0.41424753        3.14144353
 C            2.31229461       -1.74491516        2.63485951
 C            2.46509608        0.69022991        2.21832012
 C            0.79237097        0.94972935        3.82858690
 C            1.40480836        1.57429016        2.66964583
 C           -0.55425562       -0.96132157        4.00015316
 C           -0.56394315        0.45690984        3.68759086
 C            0.08542621       -2.85056328        2.76351535
 C           -0.99190620       -1.89276892        2.97241465
 C            0.27209069       -3.35420259        1.48902856
 C            2.26333258       -1.95252341        1.25653600
 C            1.52521182       -3.04892626        0.81847341
 C            2.54177565        0.43991580        0.85930194
 C            2.48770634       -0.87773839        0.37322342
 C            2.15521943        1.46864796        0.01690021
 C            0.56871171        2.12516639        1.69871345
 C            1.07092270        2.26900492        0.40121367
 C           -1.28355002        0.87838016        2.57753514
 C           -0.80949954        1.97979130        1.86312545
 C           -1.68246586       -1.38107262        1.87195753
 C           -2.08819238       -0.04784579        1.91127549
 C           -0.76349131       -3.13512222        0.49987346
 C           -1.60358104       -2.03283256        0.63419350
 C            1.29643243       -3.23510467       -0.59510661
 C           -0.14107070       -3.38451025       -0.78029526
 C            2.39510654       -1.08152543       -1.01848182
 C            1.74865656       -2.21171854       -1.51073463
 C            2.49151748        1.34632822       -1.31671118
 C            2.51054660        0.01140304       -1.87931562
 C            1.89313996        2.24109189       -2.28254976
 C            0.26991043        2.88337428       -0.56938115
 C            0.73110717        3.00249016       -1.87884915
 C           -1.65512056        2.55276274        0.92314298
 C           -1.08677341        3.07335262       -0.30946571
 C           -2.92845984        0.41783849        0.91002635
 C           -2.86408157        1.82860989        0.57565011
 C           -2.13187028       -1.41248163       -0.50902690
 C           -2.98901107       -0.32579457       -0.33625721
 C           -0.52108526       -2.55498255       -1.90003596
 C            0.69978080       -2.04460569       -2.50239193
 C           -1.60596963       -1.69511900       -1.78195681
 C            1.69160432        0.05001019       -3.08444744
 C            1.52571148        1.45023149       -3.44524982
 C            0.63473957       -0.85450275       -3.22039581
 C           -0.22172227        2.94196978       -2.97454234
 C            0.23563837        1.92087295       -3.90572657
 C           -2.06364455        2.86370311       -1.37089585
 C           -3.07912351        1.96407005       -0.85210653
 C           -3.19103499        0.62932369       -1.41462468
 C           -1.61858360        2.68443889       -2.67406624
 C           -1.78961985       -0.79353757       -2.82681220
 C           -0.62947163       -0.40785286       -3.61671220
 C           -0.83221144        0.95832895       -4.06773973
 C           -2.62602684        0.37981142       -2.65474272
 C           -2.00863202        1.47749234       -3.38887181
