58
Modified xyz file
 C            1.46516785       -0.16709740        4.19420226
 C            0.66152655       -1.35372576        3.97453085
 C            1.32058150       -2.16789072        2.96422033
 C            2.60014811       -0.23638475        3.29460462
 C            2.42233945       -1.38809010        2.42741750
 C            2.72503824        1.06067374        2.66773074
 C            0.66902872        0.98229260        3.79463683
 C            1.43446056        1.72600724        2.81897096
 C           -0.70145815       -0.91780994        3.73078063
 C           -0.64174476        0.50222496        3.41704048
 C           -1.51512603       -1.73145919        2.95450471
 C            0.52885709       -2.89969665        2.09415841
 C           -0.91264875       -2.87637615        2.28772937
 C            0.77644502       -2.80362060        0.66431263
 C            2.54885956       -1.20302352        1.04818301
 C            1.66475585       -1.84506124        0.17061542
 C            3.32283676        1.10548197        1.42060689
 C            3.28096200       -0.10459277        0.60226382
 C            2.95576515        2.20522506        0.55526585
 C            0.79608198        2.22200800        1.68064420
 C            1.60452196        2.72236806        0.66268278
 C           -1.22073100        0.95090612        2.23355958
 C           -0.50618747        1.80202206        1.36972521
 C           -2.42602525       -1.11141417        2.00568503
 C           -2.33040723        0.25676895        1.75029853
 C           -1.53709604       -3.01662085        0.98539295
 C           -0.49264892       -3.00710070       -0.01478874
 C           -2.58144643       -2.01883947        0.87812704
 C           -0.72724222       -2.31073306       -1.18748200
 C            1.49542091       -1.37480629       -1.14236448
 C            0.36175143       -1.77757818       -1.86732678
 C            3.18589080        0.30423180       -0.78475512
 C            3.14039466        1.75588569       -0.80625821
 C            2.34584087       -0.38175577       -1.65403206
 C            1.07906343        2.84298466       -0.68783159
 C            2.11178599        2.38455081       -1.60917437
 C           -1.07367525        2.16265634        0.14207893
 C           -0.24844268        2.50517641       -0.93609884
 C           -2.99887272        0.75202846        0.63876413
 C           -2.41225302        1.86319140       -0.08258014
 C           -2.83834692       -1.45788002       -0.36742906
 C           -2.00777999       -1.80593786       -1.44273583
 C           -3.43578576       -0.20143961       -0.36345416
 C           -2.27541364       -1.28335404       -2.70852692
 C            0.17864305       -1.36901924       -3.18320412
 C           -1.17771640       -1.13695143       -3.65238667
 C            1.98900679        0.28439127       -2.82536528
 C            1.70882896        1.71198377       -2.74889529
 C            0.99772091       -0.30019210       -3.70275288
 C           -0.63599354        2.20355408       -2.24943381
 C           -1.23339518        0.21526646       -4.19256110
 C            0.34015288        1.87010866       -3.18953801
 C            0.10100615        0.77079886       -4.10644455
 C           -2.91277556        1.80182261       -1.44398843
 C           -3.59149529        0.52254403       -1.60723865
 C           -3.09684218       -0.09014719       -2.82199769
 C           -1.97369361        1.93955910       -2.53714770
 C           -2.30763919        0.91188559       -3.51294120
