58
Modified xyz file
 C            1.50669728        0.04993064        4.26757004
 C            0.69982364       -1.15281048        4.17976896
 C            1.43673048       -2.12509913        3.39452044
 C            2.65290787       -0.12271365        3.39044580
 C            2.61904051       -1.46598695        2.86155192
 C            2.64864390        0.97365981        2.44895785
 C            0.71469015        1.15464618        3.74909366
 C            1.48135386        1.79983791        2.71222784
 C           -0.62714081       -0.76541245        3.73585222
 C           -0.59187257        0.65094323        3.40160469
 C           -1.33095418       -1.62025817        2.89695617
 C            0.75942055       -2.78071809        2.28974939
 C           -0.62176100       -2.67900233        2.18328470
 C            2.61243856       -1.63873303        1.41909703
 C            1.56578522       -2.59107589        1.09446374
 C            2.97657070        0.74672367        1.11658473
 C            2.79840981       -0.54215335        0.57517629
 C            2.79644898        1.84225943        0.28220959
 C            0.82047628        2.33623692        1.61033823
 C            1.62937203        2.67484855        0.53306998
 C           -1.18413203        1.07074201        2.21246163
 C           -0.51051110        1.96446361        1.35564365
 C           -2.28775428       -1.04315473        1.96852747
 C           -2.25679622        0.32524643        1.72240603
 C           -1.22532389       -2.79708926        0.86815750
 C           -2.40425763       -1.94881490        0.83975947
 C            0.93582066       -2.48639781       -0.14272103
 C           -0.41534474       -2.84077579       -0.25928428
 C            2.42705636       -0.68548746       -0.76864447
 C            1.53446594       -1.70094285       -1.13264680
 C            2.91780357        1.66468574       -1.14600861
 C            2.71482298        0.33671757       -1.67058780
 C            1.02824100        2.99186410       -0.74316879
 C            1.94387937        2.53635012       -1.77709149
 C           -1.11619779        2.32972357        0.14258614
 C           -0.33471510        2.79724621       -0.92802315
 C           -2.95762226        0.79988270        0.62604293
 C           -2.44653000        1.96318357       -0.06592978
 C           -2.83538741       -1.43588702       -0.38227472
 C           -3.37866418       -0.15097849       -0.39263111
 C           -1.04602768       -2.71538600       -1.49112867
 C           -2.29969862       -1.97510918       -1.55669775
 C            1.04299735       -1.75978739       -2.43423772
 C           -0.25508680       -2.36272289       -2.65233935
 C            1.92906850        0.47272149       -2.88676393
 C            1.39783579        1.82984827       -2.92194148
 C            1.13341033       -0.58956611       -3.29033127
 C           -0.78952206        2.68041412       -2.24348249
 C            0.05894621        2.03120045       -3.23026208
 C           -3.00173129        1.92785657       -1.40675222
 C           -3.50127197        0.58026980       -1.64025297
 C           -2.15371118        2.28540989       -2.51791935
 C           -2.30277059       -1.21179945       -2.79909359
 C           -1.04035667       -1.45936328       -3.47735873
 C           -0.19116699       -0.33703955       -3.84056755
 C           -0.71577387        0.95079049       -3.81724631
 C           -2.85481827        0.06245716       -2.82964720
 C           -2.10625669        1.15410545       -3.43307341
