58
Modified xyz file
 C            1.52238673        0.11799685        4.19048206
 C            0.72160736       -1.06972215        3.95890690
 C            1.55354408       -2.00125246        3.23331467
 C            2.65067074        0.06778042        3.27332603
 C            2.71056788       -1.26969449        2.73368128
 C            2.51539350        1.18058499        2.35368168
 C            0.71815015        1.26664971        3.82318062
 C            1.49451816        2.06239764        2.89347364
 C           -0.53881883       -0.65908958        3.35782185
 C           -0.58363653        0.79217035        3.38505415
 C           -1.01303580       -1.32917466        2.22733991
 C            0.96897064       -2.68606628        2.10275684
 C           -0.38166421       -2.51213127        1.81512281
 C            2.73598114       -1.43967986        1.29244985
 C            1.90621883       -2.58663800        0.99832016
 C            2.55283945        0.96536169        0.97362450
 C            2.64425498       -0.33727611        0.45123477
 C            2.14662873        2.00805655        0.13762091
 C            0.79476296        2.86021622        2.00405220
 C            1.29192301        2.98817137        0.64628297
 C           -1.19857726        1.45745807        2.33247855
 C           -0.64122477        2.65915596        1.88694942
 C           -1.85943042       -0.64730061        1.33996722
 C           -2.03100847        0.74146055        1.47373011
 C           -2.44612336       -1.34400172        0.27300409
 C           -0.82593952       -3.13485910        0.65819780
 C           -1.99682263       -2.62479205       -0.02269607
 C            1.38521533       -2.73242605       -0.28273766
 C            0.16677648       -3.40370323       -0.36725772
 C            2.31277321       -0.56538738       -0.88438593
 C            1.69843160       -1.77184583       -1.25780542
 C            2.25039431        1.84884926       -1.24029441
 C            2.35731464        0.50462287       -1.77406606
 C            1.36216223        2.60288228       -2.10997086
 C            0.17510253        3.46045973       -0.15958150
 C           -1.04294121        3.20408614        0.59836074
 C            0.19761759        3.24765037       -1.53162549
 C           -2.74236521        1.45724519        0.51545036
 C           -2.15080726        2.66211105       -0.03802867
 C           -3.17109412       -0.66310857       -0.70268231
 C           -3.39772471        0.75699691       -0.56396803
 C           -2.88822387       -0.91561802       -2.10747809
 C           -1.88672313       -3.03222291       -1.41707457
 C           -0.52400023       -3.49350414       -1.63529804
 C           -2.20590308       -2.07140068       -2.45857529
 C            1.16168495       -1.89923750       -2.54242682
 C            0.02022744       -2.77112726       -2.76244284
 C           -1.04849297       -1.96293047       -3.32964885
 C            1.60650292        0.45263616       -3.01857299
 C            0.90788768        1.71548763       -3.16551826
 C            0.93270033       -0.71188312       -3.34323525
 C           -0.49803570       -0.64783849       -3.61264595
 C           -0.98277983        2.72159943       -2.20255147
 C           -2.15750077        2.52736518       -1.48627532
 C           -3.00189247        1.39374901       -1.81326400
 C           -2.48703730        0.35569216       -2.68988782
 C           -0.54485728        1.71223139       -3.15818633
 C           -1.21654867        0.49278690       -3.25168406
