58
Modified xyz file
 C            1.41821801        0.10610350        4.15510578
 C            0.62820354       -1.09333287        3.95924142
 C            1.45715400       -2.04425309        3.25424774
 C            2.59537684       -0.00195982        3.30632838
 C            2.61985375       -1.33241370        2.74440249
 C            2.57700434        1.12021630        2.39557434
 C            0.63450227        1.23319325        3.67930636
 C            1.46329738        1.98049003        2.76312422
 C           -0.63509605       -0.70695844        3.35343731
 C           -0.62804976        0.73632753        3.17927973
 C           -1.17070346       -1.48629749        2.33255240
 C            0.86605311       -2.74768359        2.13929070
 C           -0.50210629       -2.65131852        1.91784736
 C            2.62459519       -1.47853754        1.29621003
 C            1.73910540       -2.58312377        0.99065257
 C            2.81936713        0.92149677        1.03597286
 C            2.59631185       -0.34847057        0.47843387
 C            2.65017274        2.04119661        0.23240564
 C            0.85207714        2.67759024        1.73032563
 C            1.69577556        3.03719203        0.68599133
 C           -1.11362410        1.26841812        1.98690465
 C           -0.49497401        2.39977637        1.43739539
 C           -2.08553397       -0.88325584        1.46757388
 C           -1.96408905        0.48889952        1.19270203
 C           -2.84499928       -1.70434632        0.64275543
 C           -0.96122242       -3.29850275        0.77793109
 C           -2.28910241       -2.99104846        0.28951625
 C            1.15606557       -2.65411392       -0.26851394
 C           -0.06539925       -3.32694122       -0.36870494
 C            2.06461027       -0.46665272       -0.81561018
 C            1.47127196       -1.67927106       -1.21899609
 C            2.44863994        1.87928241       -1.19061489
 C            2.13172454        0.62525697       -1.69488609
 C            1.15164853        3.70325869       -0.47527693
 C            1.68666061        3.03262891       -1.64910133
 C           -1.09753016        3.01330434        0.34085587
 C           -0.28559004        3.75903614       -0.60826307
 C           -2.54280707        1.04583991        0.04134528
 C           -2.08787098        2.27576839       -0.42150482
 C           -3.45021926       -1.15311873       -0.54833848
 C           -3.16615765        0.22124414       -0.88841866
 C           -2.26171543       -3.08027766       -1.16065548
 C           -0.87214396       -3.20041710       -1.57213308
 C           -3.05825958       -1.98449363       -1.67758899
 C            0.90600274       -1.79747741       -2.48690640
 C           -0.39567829       -2.42600924       -2.62236667
 C            1.48900458        0.57446151       -2.92858019
 C            0.93158623       -0.67340821       -3.39336513
 C            0.59204098        2.82230473       -2.58081354
 C           -0.62230153        3.30271899       -1.94678731
 C           -1.75556595        2.40293530       -1.83460913
 C            0.54325481        1.62375929       -3.27713890
 C           -2.70449148        0.25796848       -2.26697902
 C           -2.48383546       -1.11745876       -2.69044705
 C           -1.27521802       -1.46528324       -3.27908944
 C           -0.43832619       -0.41209121       -3.81616067
 C           -1.81658429        1.26720605       -2.64079438
 C           -0.74038362        0.97064237       -3.48406528
