58
Modified xyz file
 C            1.42387016       -0.06593611        4.25859823
 C            0.62204616       -1.26149421        4.06645239
 C            1.38885954       -2.19020332        3.27121360
 C            2.60350278       -0.18969669        3.42053291
 C            2.62156494       -1.52341231        2.86937579
 C            2.60304907        0.92457408        2.50041514
 C            0.65189626        1.07061734        3.77633503
 C            1.41529139        1.72650309        2.74918616
 C           -0.66832816       -0.84495587        3.56682375
 C           -0.66213040        0.60280339        3.42638659
 C           -1.30116992       -1.57874748        2.56939759
 C            0.78159930       -2.73869946        2.07131421
 C           -0.53232031       -2.40410425        1.72308279
 C            2.74748577       -1.67530828        1.43047567
 C            1.80721500       -2.71103157        1.04541966
 C            2.97762545        0.73571223        1.17458573
 C            2.89108072       -0.55233609        0.60712239
 C            2.77990079        1.83867448        0.35643491
 C            0.75787419        2.26017920        1.64269506
 C            1.58462933        2.63586325        0.59421808
 C           -1.30802757        1.14270869        2.31614166
 C           -0.56839364        1.87024742        1.35973826
 C           -2.45050444       -0.99051376        2.06146078
 C           -2.44251432        0.45751890        1.90698630
 C           -3.07255461       -1.55804481        0.89150403
 C           -0.94850452       -2.64691997        0.40261112
 C           -2.24538158       -2.33971190        0.00457541
 C            1.41495011       -2.78328309       -0.27779662
 C            0.00031168       -2.90574269       -0.58318441
 C            2.64225123       -0.70460038       -0.76790553
 C            1.97523529       -1.83745892       -1.22697133
 C            2.94087465        1.69467812       -1.06876416
 C            2.77652337        0.37668780       -1.63246913
 C            1.01347773        2.96999211       -0.68542428
 C            1.97382538        2.57146557       -1.69974761
 C           -1.10246482        2.07701933        0.06449509
 C           -0.33193767        2.72598110       -0.92141219
 C           -3.05190506        0.77101660        0.63981709
 C           -3.62912537       -0.45921961        0.12671321
 C           -2.39502036        1.61012320       -0.24888339
 C           -2.48513027       -1.86403545       -1.35398271
 C           -3.44068046       -0.76035577       -1.27630781
 C           -0.20151379       -2.37941121       -1.92416798
 C            1.02996208       -1.71332215       -2.32562473
 C           -1.42556224       -1.81199321       -2.26780616
 C            1.87851905        0.49628408       -2.77645425
 C            1.47183120        1.89684446       -2.87769824
 C            0.95705271       -0.52327667       -3.04455544
 C           -0.73871301        2.70938201       -2.25632241
 C            0.17409631        2.18263998       -3.26564157
 C           -2.82952390        1.57851502       -1.57476738
 C           -3.28480532        0.31171773       -2.13809850
 C           -2.06799526        2.26152840       -2.59133477
 C           -1.46084726       -0.89042586       -3.31437981
 C           -0.22827410       -0.22375573       -3.71622744
 C           -0.54684345        1.16475552       -3.99388989
 C           -2.52716084        0.09360378       -3.34830700
 C           -1.95906899        1.37035997       -3.73598391
