58
Modified xyz file
 C            1.19499169        0.03531397        4.09091051
 C            2.42542268       -0.03179954        3.33020373
 C            2.53924561       -1.39233150        2.84993024
 C            0.40424270       -1.13937685        3.73879815
 C            1.20356044       -1.95687333        2.85166176
 C           -0.88453673       -0.67500482        3.27793015
 C            0.34875103        1.19449279        3.90894683
 C           -1.00047528        0.71013919        3.67630418
 C            0.64624801        2.10719202        2.82039461
 C            2.58600031        0.83843925        2.17477162
 C            1.57548340        1.73587213        1.84549662
 C            3.23622118       -1.34354446        1.58467997
 C            3.19590643        0.04421532        1.12626663
 C            2.92887843       -2.32818773        0.66155437
 C            0.67293559       -2.38468847        1.63456885
 C            1.57015351       -2.86621073        0.67960992
 C           -1.31940457       -1.01985467        2.00498663
 C           -0.57896584       -1.91142846        1.21249367
 C           -2.32360258       -0.24989883        1.41462072
 C           -1.62601641        1.62992782        2.74407787
 C           -0.63239611        2.64231142        2.40421824
 C           -2.42010522        1.11606060        1.72005529
 C           -0.71692230        3.24465619        1.16032104
 C            1.31254206        2.01696960        0.50032557
 C            0.32984951        2.95690281        0.18784221
 C            2.88015305        0.29960030       -0.20894481
 C            1.83656560        1.19416703       -0.51052207
 C            3.25768960       -2.05467249       -0.71841598
 C            3.25867743       -0.66684478       -1.13915997
 C            1.13691506       -3.02624617       -0.69905457
 C            2.28683001       -2.74743953       -1.53993740
 C           -1.03365908       -2.20720835       -0.07738549
 C           -0.11738229       -2.55298423       -1.07757739
 C           -2.96930287       -0.76043620        0.29488510
 C           -2.33172102       -1.84765010       -0.42595975
 C           -3.54063806        0.14932934       -0.68330919
 C           -2.83071119        2.01003823        0.73337711
 C           -1.98549317        3.15815293        0.46261271
 C           -3.31722385        1.51305007       -0.54075434
 C           -0.28211139        2.93753835       -1.12762892
 C           -1.70597037        3.17053371       -0.95780047
 C           -2.63587786        2.25908351       -1.59770780
 C            1.30145549        1.26175918       -1.81244332
 C            0.13095704        1.98566571       -2.04931539
 C            2.70783077       -0.63764671       -2.47253346
 C            2.09477121       -1.93868067       -2.72175281
 C            1.72111131        0.36864772       -2.79413718
 C           -0.33295155       -2.15286085       -2.40747061
 C            0.74125521       -1.68079448       -3.16065555
 C            0.71606842       -0.29901254       -3.59785618
 C           -2.67216716       -1.71108523       -1.82617196
 C           -3.40485863       -0.46449407       -1.99183562
 C           -1.60145871       -1.73797044       -2.80112075
 C           -2.20721259        1.59426326       -2.73835501
 C           -0.77820043        1.53979327       -3.01620757
 C           -0.52047594        0.30701720       -3.74377146
 C           -2.76739957        0.29181805       -3.05129349
 C           -1.70347200       -0.52772473       -3.60276579
