58
Modified xyz file
 C            1.54285874        0.11290947        4.20203092
 C            0.72353270       -1.08150105        4.29058283
 C            1.39794207       -2.13604538        3.55773883
 C            2.61703071       -0.15529448        3.25944784
 C            2.54200875       -1.54702529        2.88080708
 C            2.54089680        0.84149368        2.21047187
 C            0.72110933        1.17173395        3.64117591
 C            1.42375729        1.71598220        2.50174922
 C           -0.63027669       -0.72463436        3.90164839
 C           -0.61168564        0.65085450        3.42477177
 C           -1.39582945       -1.65365005        3.21007879
 C            0.63661999       -2.88828982        2.57598863
 C           -0.74936083       -2.81785855        2.60639524
 C            2.43587398       -1.86760333        1.47125686
 C            1.31993887       -2.77631449        1.29207359
 C            2.72160639        0.47083207        0.87940794
 C            2.63024669       -0.88247894        0.51153651
 C            2.39927579        1.42793836       -0.08763320
 C            0.68778295        2.16119171        1.41455285
 C            1.37244045        2.33120895        0.21658684
 C           -1.26415447        0.96762334        2.23296577
 C           -0.68854662        1.90244213        1.35646890
 C           -2.38028731       -1.16986545        2.26077016
 C           -2.29569771        0.13866714        1.78431282
 C           -1.47327559       -3.13786610        1.39211571
 C           -2.61203638       -2.24224684        1.31305095
 C            0.57721527       -2.70176040        0.10808316
 C           -0.77165463       -3.05791741        0.12341017
 C            2.23015446       -1.17969119       -0.78577813
 C            1.06830603       -1.94523805       -0.96409799
 C            2.66707873        1.10799362       -1.41630407
 C            2.61895572       -0.29308467       -1.77856260
 C            2.05237895        1.86668180       -2.49131503
 C            0.71807273        3.02160103       -0.79364768
 C            1.11150117        2.83946208       -2.17851308
 C           -1.39570240        2.31623624        0.22086509
 C           -0.73130622        3.08075002       -0.74043710
 C           -2.95303244        0.45418215        0.59932423
 C           -2.56324988        1.64432580       -0.13717965
 C           -2.80115107       -1.89243975       -0.08004226
 C           -1.68116326       -2.44362221       -0.83001814
 C           -3.21118117       -0.60229768       -0.37422639
 C            0.23261495       -1.69505852       -2.06111433
 C           -1.15214970       -1.70737588       -1.88494082
 C            2.02055138       -0.39991402       -3.09140615
 C            1.82351265        0.94762031       -3.59757869
 C            0.76271689       -1.10506341       -3.20424992
 C            0.55474528        0.96542648       -4.30216170
 C           -0.10807923       -0.30566657       -4.04701694
 C           -0.07760360        3.00879802       -3.00095163
 C           -1.22321438        3.10691504       -2.10899748
 C           -0.39245868        2.02884414       -4.02523327
 C           -2.84861817        1.37971663       -1.54115637
 C           -2.89444522       -0.06365638       -1.68093630
 C           -1.92949111       -0.69596869       -2.46012150
 C           -1.45201147       -0.02413152       -3.58082910
 C           -2.20204119        2.11876227       -2.52134985
 C           -1.66102118        1.41336735       -3.67386946
