58
Modified xyz file
 C            1.62859690       -0.07175878        4.28371170
 C            0.81081599       -1.25689520        4.45819339
 C            1.29581992       -2.26114755        3.53171508
 C            2.54578827       -0.31879660        3.18315486
 C            2.27702752       -1.63982142        2.65847005
 C            2.44827789        0.80391252        2.27834109
 C            0.75225085        1.00704578        3.86971203
 C            1.39246538        1.67875614        2.75428906
 C           -0.54764728       -0.92822654        4.05513831
 C           -0.57012651        0.45642013        3.64335572
 C            0.13444553       -2.86117857        2.91293465
 C           -0.97385095       -1.92775424        3.10168705
 C            0.30178930       -3.41119081        1.65336969
 C            2.13341037       -1.80662460        1.28029157
 C            1.38690647       -2.89437946        0.82351227
 C            2.50634678        0.57660221        0.91060080
 C            2.37062875       -0.72972445        0.41211958
 C            2.14541144        1.63707832        0.08342281
 C            0.57835749        2.25480549        1.78571997
 C            1.15022761        2.51080021        0.53869014
 C           -1.20359003        0.80241276        2.45578519
 C           -0.79132888        1.97626602        1.83512127
 C           -1.71944853       -1.53520855        1.98804067
 C           -1.85560944       -0.17064335        1.67996305
 C           -0.86860964       -3.48937058        0.80762003
 C           -1.89284587       -2.47542377        0.98028926
 C            0.94252602       -2.92812925       -0.56059277
 C           -0.41511019       -3.42477999       -0.56682758
 C            2.16116710       -0.89984292       -0.96161400
 C            1.24749522       -1.86378231       -1.39878101
 C            2.39539756        1.50252347       -1.27620986
 C            2.48332557        0.15708389       -1.80923382
 C            1.67557327        2.31938188       -2.23610663
 C            0.41224225        3.26856497       -0.36594577
 C            0.62907013        3.11726797       -1.79421729
 C           -1.61168412        2.50257936        0.85151447
 C           -1.01602487        3.37591812       -0.14226679
 C           -2.43698360        0.22342964        0.45994217
 C           -2.50744702        1.58939665        0.16329962
 C           -2.29425286       -2.04349934       -0.34032189
 C           -1.39934860       -2.66912181       -1.30613293
 C           -2.66738833       -0.72042631       -0.55257862
 C            0.38934156       -1.57628981       -2.47094638
 C           -0.97632244       -1.89304221       -2.37508028
 C            1.94246064        0.17683644       -3.15602646
 C            1.52976339        1.54059075       -3.45272495
 C            0.83058720       -0.69987863       -3.46185285
 C            0.23474295        1.48047019       -4.10293526
 C           -0.13434822        0.07861434       -4.22064240
 C           -0.67763451        3.05147182       -2.44222299
 C           -1.69110660        3.14375914       -1.40418629
 C           -2.61889826        2.04009450       -1.21563336
 C           -0.88879765        2.18780560       -3.51189987
 C           -2.74964139       -0.30720701       -1.88423778
 C           -1.91219424       -0.98750313       -2.85694457
 C           -1.53590865       -0.03961706       -3.88224080
 C           -2.76093298        1.10276990       -2.22449704
 C           -2.01517769        1.26860608       -3.46710537
