58
Modified xyz file
 C            1.48650175        0.11037497        4.16156572
 C            0.70744658       -1.11550978        4.15457365
 C            1.42031891       -2.09126287        3.35172284
 C            2.58352266       -0.05822712        3.22512226
 C            2.59034396       -1.43553289        2.78934380
 C            2.46693384        0.97473199        2.21498518
 C            0.63816618        1.17753413        3.65869342
 C            1.28832936        1.76805305        2.50505413
 C           -0.65470876       -0.77568355        3.78678681
 C           -0.69896153        0.64787733        3.48581049
 C           -1.37080647       -1.64583045        2.97423355
 C            0.71629111       -2.75421331        2.26521408
 C           -0.66372570       -2.64814217        2.17973563
 C            2.60035498       -1.69753520        1.36424521
 C            1.50806256       -2.59656896        1.05768588
 C            2.71603027        0.67206596        0.88287648
 C            2.84381303       -0.66369784        0.46731160
 C            2.30097531        1.60540350       -0.06153281
 C            0.49648054        2.17312305        1.43232037
 C            1.08172144        2.26877593        0.16166974
 C           -1.44002851        1.07664098        2.38853543
 C           -0.89023585        2.04124653        1.53356352
 C           -2.42201394       -1.10147930        2.13436704
 C           -2.49331804        0.27588427        1.93763167
 C           -1.28928486       -2.68777129        0.86912011
 C           -2.55134751       -1.98354540        0.98720640
 C            0.88274594       -2.44657108       -0.17949843
 C           -0.51671244       -2.51115937       -0.27896461
 C            2.63001779       -0.93886218       -0.88291977
 C            1.61215600       -1.85192976       -1.21090598
 C            2.77086706        1.42916895       -1.35445686
 C            2.98179871        0.06284455       -1.78324142
 C            2.13122181        2.13818215       -2.43454667
 C            0.30872656        2.73691814       -0.91678756
 C            0.78439843        2.60994004       -2.22114862
 C           -1.67827535        2.57779247        0.52679287
 C           -1.07081892        2.85670345       -0.76116879
 C           -3.32540326        0.75261728        0.93003486
 C           -2.98952136        2.00549679        0.28310270
 C           -3.15033877       -1.48949416       -0.16046516
 C           -3.76174625       -0.17177089       -0.10398719
 C           -1.15200044       -2.13412881       -1.47093161
 C           -2.43786108       -1.58880982       -1.42490959
 C            1.05946920       -1.87207126       -2.48688212
 C           -0.38361115       -1.87909442       -2.60483029
 C            2.59360118       -0.03981015       -3.17432820
 C            2.13072115        1.27016462       -3.60077859
 C            1.58015909       -1.00497221       -3.52845416
 C           -0.07324061        1.96671414       -3.20756784
 C           -0.74496784       -0.74563671       -3.44162589
 C            0.75624553        1.12778175       -4.04820479
 C            0.45544283       -0.28141238       -4.10455280
 C           -1.92650109        2.28044246       -1.78587962
 C           -3.14555405        1.82785385       -1.15269582
 C           -3.56989238        0.47108327       -1.39310605
 C           -2.71363997       -0.38207932       -2.19177534
 C           -1.32730512        1.52247077       -2.79075223
 C           -1.68104252        0.16491630       -2.95240661
