58
Modified xyz file
 C            1.52233873        0.13003919        4.28143604
 C            0.72686992       -1.07715631        4.16657824
 C            1.50016497       -2.03673574        3.40209030
 C            2.64649449        0.00579692        3.36598588
 C            2.63769536       -1.33373370        2.82662021
 C            2.57776892        1.11512758        2.43971746
 C            0.70619141        1.24214273        3.82489511
 C            1.48291754        1.97893127        2.85411248
 C           -0.59186999       -0.70088836        3.68287152
 C           -0.57367362        0.72478857        3.39418646
 C           -1.25447166       -1.54780984        2.80629301
 C            0.84078975       -2.75320175        2.32683287
 C           -0.54054943       -2.67060389        2.20656285
 C            2.57383970       -1.50187445        1.38522472
 C            1.64916159       -2.59156843        1.12854146
 C            2.75398564        0.90089461        1.07068283
 C            2.54837870       -0.38594844        0.54262645
 C            2.52511312        2.00580106        0.25678499
 C            0.81397685        2.65759503        1.84472117
 C            1.60131349        3.00893942        0.75551639
 C           -1.08592416        1.19088618        2.18412847
 C           -0.53872901        2.34830451        1.61752692
 C           -2.08698437       -0.96549293        1.76866279
 C           -1.90684635        0.36247139        1.40767415
 C           -1.12533130       -2.90021198        0.90001370
 C           -2.21803804       -1.95745747        0.72397843
 C            1.02624278       -2.64632535       -0.11249214
 C           -0.28686958       -3.12658719       -0.18527519
 C            2.01940590       -0.54723725       -0.74681947
 C            1.48853356       -1.78786417       -1.11279413
 C            2.21579241        1.81404699       -1.14443781
 C            1.82314428        0.55936892       -1.57864059
 C            0.99117891        3.66131662       -0.37937399
 C            1.44537040        2.96387635       -1.57326784
 C           -1.20316977        2.92808432        0.53744998
 C           -0.45213577        3.72336000       -0.42001495
 C           -2.30351300        0.77417419        0.13473438
 C           -2.14984539        2.11698131       -0.21216012
 C           -2.50998145       -1.55060765       -0.57343210
 C           -2.62011670       -0.17660228       -0.85089055
 C           -0.89642640       -3.17492149       -1.43213070
 C           -2.13691062       -2.43180000       -1.59051057
 C            1.03051786       -1.97788687       -2.41196875
 C           -0.08654424       -2.88090744       -2.59505503
 C            0.99381689        0.45066040       -2.69937435
 C            0.79636186       -0.81359740       -3.24971807
 C            0.29059367        2.74047445       -2.41927587
 C           -0.86393688        3.32009352       -1.74965685
 C           -2.05532473        2.49968097       -1.61360597
 C            0.12307866        1.50344589       -3.03355832
 C           -2.82090440        0.25324157       -2.16574810
 C           -2.27228392        1.52907270       -2.57695777
 C           -1.16833154        1.20511157       -3.46284024
 C           -2.23695760       -2.03016929       -2.97797120
 C           -0.96250113       -2.32952882       -3.61257682
 C           -0.38930436       -1.07133199       -4.05039468
 C           -2.56121739       -0.65373474       -3.27164922
 C           -1.45234457       -0.09292299       -4.03385788
