58
Modified xyz file
 C            1.50787700        0.01595431        4.38666182
 C            0.70519756       -1.17831321        4.22370610
 C            1.58527174       -2.18329238        3.66922256
 C            2.64767539       -0.10722161        3.48821052
 C            2.71118162       -1.48199768        3.06014526
 C            2.51070835        0.92495328        2.48075534
 C            0.71800389        1.13748346        3.92040868
 C            1.55409127        1.88375190        3.00695328
 C           -0.49872202       -0.81342810        3.48466212
 C           -0.54564507        0.63462400        3.40524908
 C           -0.88372313       -1.56434632        2.37623906
 C            1.04597210       -3.06653534        2.66214740
 C           -0.28173662       -2.79758043        2.13652028
 C            2.67748455       -1.76998790        1.63859974
 C            1.94780828       -3.00789671        1.52502474
 C            2.44994758        0.59216903        1.11905919
 C            2.40593526       -0.75129936        0.71531727
 C            2.03475696        1.58457490        0.23126217
 C            0.90836514        2.68513741        2.09065699
 C            1.45681949        2.73974525        0.75765689
 C           -1.05929553        1.23935223        2.25989582
 C           -0.51612037        2.46540584        1.88581831
 C           -1.57725215       -0.94710941        1.33251156
 C           -1.66779426        0.45374178        1.27568173
 C           -1.96390505       -1.71473245        0.22661168
 C           -0.24914269       -3.28785560        0.77804374
 C            1.13765605       -3.18767150        0.35030871
 C           -1.20060375       -2.83843903       -0.12652256
 C            1.86751818       -1.08867420       -0.54314803
 C            1.38626210       -2.39426496       -0.75916640
 C            1.79112210        1.26979748       -1.10698449
 C            1.57002682       -0.06964535       -1.46750537
 C            1.37332534        2.30436032       -1.95030680
 C            0.44605199        3.41804478       -0.01614434
 C           -0.82278480        3.00420547        0.57337822
 C            0.56287159        3.37616473       -1.38987797
 C           -2.18398285        1.07046270        0.12737739
 C           -1.75209742        2.35439572       -0.23448087
 C           -2.81552521       -1.14007769       -0.71876892
 C           -2.92507898        0.30796722       -0.77198348
 C           -2.80412536       -1.63212088       -2.08829301
 C           -0.84119666       -2.99015275       -1.46021986
 C            0.51740458       -2.61844722       -1.81400814
 C           -1.72455614       -2.50229327       -2.49187922
 C            0.95913108       -0.38976168       -2.69617981
 C            0.43009763       -1.65809154       -2.88236602
 C           -0.90261367       -1.78412952       -3.45208003
 C            0.82935571        1.99221932       -3.25316368
 C            0.50962675        0.61680094       -3.54816467
 C           -0.66609474        3.40661530       -2.15134793
 C           -1.83241560        2.76613284       -1.56604204
 C           -0.38779839        2.77232832       -3.42231969
 C           -3.00205940        0.70417911       -2.17145787
 C           -2.79711314       -0.48736189       -2.98036558
 C           -1.61065714       -0.57593963       -3.82455895
 C           -0.86598234        0.57525721       -4.03702217
 C           -2.39964531        1.88722954       -2.57228336
 C           -1.46987829        1.84561323       -3.69144439
