58
Modified xyz file
 C            1.27125282       -0.12869633        3.72645760
 C            2.48490591       -0.43022155        3.00577422
 C            2.37777320       -1.78677538        2.48987401
 C            0.42175497       -1.31060534        3.68314936
 C            1.05398899       -2.28218010        2.81131137
 C           -0.92777235       -0.86288773        3.38550113
 C            0.46700001        0.99915842        3.29424109
 C           -0.91517853        0.59169078        3.44899183
 C            0.83498005        1.73223231        2.16311475
 C            2.86276248        0.42539359        1.90108669
 C            2.10966825        1.55345189        1.59014635
 C            2.80866055       -1.76630382        1.10182755
 C            3.30813267       -0.43027625        0.81595942
 C            2.06171187       -2.42641681        0.13006022
 C            0.30113871       -2.88515819        1.81433435
 C            0.86119740       -3.04815542        0.47866079
 C           -1.66957432       -1.49809412        2.38794722
 C           -1.11003408       -2.55342048        1.66848399
 C           -2.79314565       -0.85421459        1.87708907
 C           -1.89462600        1.29544744        2.76974954
 C           -2.99529114        0.54993162        2.18884430
 C           -0.14148076        2.51094408        1.51973159
 C           -1.49078439        2.30408555        1.80239152
 C            0.16589972        3.19736330        0.35136367
 C            2.43376788        2.19909433        0.40339299
 C            1.51666654        3.16301936       -0.15731317
 C            3.24099992        0.04990398       -0.49035266
 C            2.98735473        1.41160511       -0.69040684
 C            2.29306247       -2.10241900       -1.20283989
 C            2.98901940       -0.86205293       -1.51457591
 C            1.22952453       -2.27046554       -2.18121780
 C           -0.24767847       -3.05701235       -0.46469035
 C           -1.46449101       -2.73938486        0.26924312
 C           -0.06438915       -2.54692171       -1.74602675
 C           -3.17193584       -1.05727847        0.48542954
 C           -2.42349198       -1.92041552       -0.31791035
 C           -3.40294538        1.22750264        0.97134287
 C           -2.44149103        2.27956869        0.69965299
 C           -3.63321779        0.22243526       -0.04363563
 C           -0.74358491        3.09472095       -0.78035258
 C           -1.97328059        2.46337296       -0.60179534
 C            1.45140497        2.94346547       -1.59309210
 C            2.37903309        1.88265460       -1.92993404
 C            0.05448271        2.79616154       -1.95936873
 C            2.50097281       -0.39193474       -2.79816003
 C            1.43826549       -1.28579633       -3.22762289
 C            2.01674505        0.96860618       -2.90683723
 C           -0.33420220        1.75532635       -2.79722928
 C            0.31535700       -0.47764773       -3.65593558
 C            0.63293168        0.91619865       -3.36525672
 C           -1.15839906       -2.00818905       -2.42645532
 C           -2.38642733       -1.72501828       -1.69694852
 C           -0.96514077       -0.94469605       -3.40719125
 C           -3.35429596        0.54693567       -1.36094671
 C           -2.50651827        1.70116967       -1.64650132
 C           -1.67077186        1.36565043       -2.79162826
 C           -2.96612239       -0.51951491       -2.26018549
 C           -2.02414467        0.02506276       -3.22074242
