58
Modified xyz file
 C            1.54676770       -0.04405432        4.28661326
 C            0.75041436       -1.24073920        4.47714084
 C            1.25467862       -2.25148250        3.56682733
 C            2.49451379       -0.30403215        3.21500661
 C            2.24212603       -1.63104206        2.69931789
 C            2.41543921        0.80474919        2.29299476
 C            0.65899907        1.00636952        3.82245763
 C            1.30767844        1.64724908        2.69969372
 C           -0.61121037       -0.94020352        4.06700165
 C           -0.65020612        0.43040055        3.59708232
 C            0.10725333       -2.87591672        2.94369657
 C           -1.03196522       -1.98497005        3.15490681
 C            0.28415220       -3.41507721        1.67891300
 C            2.11967777       -1.80790221        1.32034379
 C            1.36940318       -2.89032130        0.85563662
 C            2.54303717        0.56298925        0.93163945
 C            2.40888716       -0.74832595        0.44486163
 C            2.20287146        1.61317091        0.08111047
 C            0.51772506        2.15466605        1.67827658
 C            1.16191478        2.45798023        0.48478990
 C           -1.27931176        0.69974202        2.38553806
 C           -0.82937033        1.77594827        1.61085264
 C           -1.82662819       -1.64077494        2.06138232
 C           -2.06909211       -0.28643008        1.78866308
 C           -0.88276830       -3.52250680        0.82749151
 C           -1.96152065       -2.57789475        1.03803021
 C            0.92905823       -2.91405622       -0.52865265
 C           -0.44324652       -3.38167772       -0.54763267
 C            2.21779614       -0.93079521       -0.93054942
 C            1.27081621       -1.86133934       -1.36457605
 C            2.49821516        1.46303756       -1.26732778
 C            2.56585644        0.11173332       -1.78792600
 C            1.84071138        2.29794663       -2.25730513
 C            0.43620045        3.17576405       -0.45455162
 C            0.82813566        3.15819171       -1.85095721
 C           -1.57914532        2.17623384        0.49922425
 C           -1.01060737        3.08862303       -0.39100628
 C           -2.82683080        0.06063748        0.67448757
 C           -2.63659174        1.37201730        0.07031695
 C           -2.42533589       -2.15737980       -0.27137375
 C           -1.43022317       -2.57833049       -1.24657012
 C           -2.99228489       -0.90137300       -0.40522956
 C            0.38948546       -1.51396668       -2.39165419
 C           -0.98734239       -1.65547614       -2.18916885
 C            2.01725212        0.12989349       -3.13383540
 C            1.69456431        1.50695972       -3.46961587
 C            0.84488630       -0.67767704       -3.40196237
 C            0.42834750        1.50144782       -4.18099234
 C           -0.11345492        0.15320494       -4.10767764
 C           -0.38161339        3.30645437       -2.64728084
 C           -1.52042141        3.19178084       -1.74830427
 C           -0.61538892        2.42470504       -3.77636857
 C           -2.91725877        1.23012316       -1.35288596
 C           -2.81295459       -0.18556256       -1.65625548
 C           -1.84488730       -0.61771209       -2.56110470
 C           -1.46576753        0.23974423       -3.58930729
 C           -2.38952211        2.14607706       -2.25235602
 C           -1.81191460        1.64917936       -3.49186936
