58
Modified xyz file
 C            1.23398243       -0.03667022        4.07014645
 C            2.44482949       -0.21412777        3.29109946
 C            2.37849246       -1.53156063        2.67997642
 C            0.41006681       -1.22122543        3.87449461
 C            1.02361245       -2.00881254        2.82369711
 C           -0.95618833       -0.78607304        3.70458936
 C            0.39714752        1.12478703        3.82598573
 C           -0.97666413        0.66561397        3.79737728
 C            0.80232475        2.09200883        2.91203832
 C            2.76207553        0.74090713        2.24313655
 C            2.00370556        1.89405746        2.10492721
 C            2.90530520       -1.42287716        1.33687482
 C            3.12610072       -0.01203922        1.05510269
 C            2.33585640       -2.18788169        0.32685505
 C            0.31737393       -2.30313741        1.65854242
 C            1.03892421       -2.69662155        0.52618401
 C           -1.65599777       -1.15152030        2.48914961
 C           -1.02027629       -1.90190104        1.50707891
 C           -1.86145555        1.15553696        2.75594079
 C           -2.42689579        0.00055263        2.07467460
 C           -0.18747186        2.75285117        2.07012526
 C           -1.49732943        2.26237591        1.99401947
 C            1.72432475        2.39292775        0.77027221
 C            0.50621929        3.17576296        0.85893211
 C            2.79363409        0.46511472       -0.21648862
 C            1.93807762        1.56876173       -0.33601005
 C            2.73833326       -1.85333055       -0.96021849
 C            2.88667180       -0.44113632       -1.26931539
 C            2.13008355       -2.50707303       -2.09694351
 C            0.32045939       -3.21798316       -0.54957465
 C            0.92119971       -3.26326986       -1.87088184
 C           -1.60067599       -1.94021412        0.23998807
 C           -1.06453540       -2.81232474       -0.70318942
 C           -2.77192434        0.12908534        0.73308980
 C           -2.46122575       -0.90573621       -0.15793260
 C           -2.25035263        2.52192643        0.85274171
 C           -2.97343334        1.41741744        0.23963560
 C           -0.22354104        3.40577565       -0.29338909
 C           -1.66674310        3.31020687       -0.21638094
 C            1.15295320        1.74261298       -1.48674166
 C            0.19100657        2.75382871       -1.52510889
 C            2.16521473       -0.19109929       -2.49980416
 C            1.84404805       -1.48261484       -3.08789616
 C            1.21565808        0.82055043       -2.53501278
 C           -0.07122768       -2.81306263       -2.83180173
 C           -1.32458108       -2.61267002       -2.11903797
 C            0.50092560       -1.70824710       -3.58946085
 C           -2.81492216       -0.76847575       -1.50022055
 C           -2.16274503       -1.58115658       -2.51406986
 C           -3.01883448        1.65073169       -1.19422116
 C           -2.14810648        2.78083541       -1.48005398
 C           -0.99679865        2.58033225       -2.34489949
 C           -2.99920356        0.56326355       -2.05561935
 C            0.15118508        0.71247281       -3.43259004
 C           -0.29663590       -0.60552187       -3.86354610
 C           -1.71684072       -0.68902484       -3.57152190
 C           -1.03190960        1.53847154       -3.25952064
 C           -2.18327617        0.64861953       -3.25522377
