58
Modified xyz file
 C            1.39271070       -0.24086960        4.48537681
 C            0.57291171       -1.43201284        4.57898579
 C            1.04230758       -2.36812418        3.57417234
 C            2.36460030       -0.45350536        3.42535081
 C            2.05668902       -1.70146473        2.77013345
 C            2.36806655        0.73411822        2.61531222
 C            0.53595651        0.85516728        4.06340904
 C            1.22958829        1.54884830        3.01254942
 C           -0.78146213       -1.06296366        4.21054181
 C           -0.76813767        0.32012832        3.75580702
 C           -0.12712695       -2.89641860        2.89940053
 C           -1.27037938       -2.07824846        3.29831365
 C            0.01088856       -3.25176179        1.56493561
 C            1.93252203       -1.72595955        1.37783542
 C            1.15158122       -2.73300614        0.81944123
 C            2.59471623        0.61817718        1.25108506
 C            2.25128549       -0.58719302        0.60951237
 C            2.40804935        1.79754085        0.55120298
 C            0.49457901        2.12112788        1.98389325
 C            1.27059751        2.61154409        0.94810421
 C           -1.35641878        0.62777206        2.52546116
 C           -0.75841054        1.56670063        1.65970358
 C           -2.18253817       -1.68202682        2.33029078
 C           -2.30212209       -0.26136201        2.02456404
 C           -1.14161190       -3.17166492        0.68668334
 C           -2.22925068       -2.39327504        1.06619772
 C            0.76413079       -2.65501722       -0.57177482
 C           -0.62818985       -3.06363938       -0.66753683
 C            1.98013961       -0.57756384       -0.77724334
 C            1.20603779       -1.59617164       -1.35372419
 C            2.43598710        1.77806269       -0.88822768
 C            2.28762695        0.56101127       -1.53880564
 C            0.63246234        3.06877411       -0.25888697
 C            1.62245683        2.90532122       -1.30904991
 C           -1.28156186        1.75671041        0.36091286
 C           -0.67832519        2.68365708       -0.50383701
 C           -2.74119492       -0.14641046        0.65137607
 C           -2.82804608       -1.48926137        0.10009565
 C           -2.24663648        0.87477410       -0.14892823
 C           -1.41674739       -2.47958563       -1.64713528
 C           -2.55815669       -1.66267273       -1.24883170
 C            0.57294150       -1.37949761       -2.57896712
 C           -0.75543419       -1.77817565       -2.73416507
 C            1.97219128        0.59175830       -2.89706964
 C            1.07562677       -0.41220987       -3.43656939
 C            1.19755188        2.95262667       -2.62370431
 C            1.61298507        1.87078910       -3.49865081
 C           -1.16086721        2.83398675       -1.80378972
 C           -0.21691979        3.18041113       -2.86009968
 C           -2.43831764        0.77556251       -1.52819217
 C           -2.55622337       -0.48939254       -2.10577247
 C           -1.72081156       -0.82234191       -3.24488614
 C           -2.06993467        1.83896549       -2.33892699
 C            0.15579959        0.25065416       -4.35040684
 C            0.54905232        1.64292128       -4.45935673
 C           -0.58854406        2.45706523       -4.06238874
 C           -1.26513613        0.20777463       -4.05165591
 C           -1.67353451        1.55984560       -3.71206488
