58
Modified xyz file
 C            1.55115820        0.07497465        3.90395504
 C            0.72240807       -1.10660693        3.75244138
 C            1.20710334       -1.85413643        2.60180062
 C            2.50249528        0.08538472        2.81014311
 C            2.37184604       -1.16175529        2.07988996
 C            2.32721342        1.31936611        2.06842900
 C            0.69274603        1.23504989        3.74934126
 C            1.13627407        1.97601818        2.57751563
 C           -0.66499796       -0.68114197        3.77201199
 C           -0.68314154        0.77737395        3.79883936
 C           -1.57063271       -1.36611839        2.97162364
 C            0.28604915       -2.38592428        1.70290031
 C           -1.07213216       -2.35580958        2.02723182
 C            0.67294021       -2.59585355        0.37549440
 C            2.55419874       -1.12304915        0.70410528
 C            1.87424411       -2.04674496       -0.08923854
 C            2.51381255        1.27408714        0.69733078
 C            2.96139909        0.08188576        0.13006038
 C            1.79390543        2.15698905       -0.09909151
 C            0.17984225        2.44751655        1.67644901
 C            0.50990688        2.54883924        0.31264849
 C           -1.62161107        1.46403888        3.04098979
 C           -1.15660920        2.45406340        2.08013311
 C           -2.65346532       -0.64545485        2.31844027
 C           -2.71488130        0.73812782        2.41467918
 C           -2.06588099       -2.48295150        0.97706745
 C           -2.91352122       -1.29795562        1.03978889
 C           -0.25369841       -3.11435084       -0.53161509
 C           -1.67442343       -2.97226335       -0.25797680
 C           -0.06047401       -2.92215010       -1.96036814
 C            2.18471866       -2.10980239       -1.44654353
 C            1.13195840       -2.38019475       -2.40855622
 C            3.34125886        0.08951121       -1.20629760
 C            3.02978873       -1.07255735       -2.01824220
 C            2.18014180        2.28930699       -1.42972413
 C            3.05287812        1.27371429       -1.99828379
 C            1.17796494        2.60041731       -2.42171561
 C           -0.48940059        2.81474750       -0.64367030
 C           -0.19940690        2.67391446       -1.99366590
 C           -2.19985784        2.60810707        1.09346695
 C           -3.13640813        1.50639108        1.25943096
 C           -1.82374761        2.66174054       -0.29841422
 C           -3.14598133       -0.53982097       -0.11345325
 C           -3.26965294        0.84243373       -0.02577304
 C           -2.61135345        1.67489792       -1.01986517
 C           -2.29407676       -2.41679060       -1.44429267
 C           -1.29910254       -2.39594005       -2.50129186
 C           -2.89352557       -1.09734801       -1.36282431
 C           -0.96588508        1.70336678       -2.76250669
 C           -2.06268914        1.08484907       -2.15969771
 C           -1.29295499       -1.06829190       -3.09076651
 C           -2.30021392       -0.26897429       -2.40473047
 C            1.09284041       -1.24777042       -3.32271371
 C            2.39395209       -0.60508903       -3.24078861
 C            2.47590997        0.84025245       -3.26158975
 C            1.26209980        1.59885651       -3.47291352
 C           -0.07655227       -0.48580100       -3.43165926
 C           -0.01477628        0.90442528       -3.51793795
