58
Modified xyz file
 C            1.52156608        0.01063879        4.88660405
 C            0.66321126       -1.15755794        4.95078149
 C            1.30048906       -2.20959800        4.17932979
 C            2.58015059       -0.26158249        3.92596628
 C            2.44712959       -1.63354292        3.49512443
 C            2.53452240        0.78222332        2.91820785
 C            0.73233118        1.10453223        4.35217314
 C            1.53414594        1.75314579        3.33458870
 C           -0.59198634       -0.82338117        4.29407152
 C           -0.56776886        0.58572839        3.95585633
 C            0.36213193       -2.63203601        3.15644567
 C           -0.80514679       -1.77428862        3.22404008
 C            2.28606415       -1.89398755        2.07708952
 C            1.07901533       -2.67470814        1.89503208
 C            2.61638821        0.45487297        1.56192269
 C            2.53457469       -0.88850818        1.14650846
 C            2.32539446        1.46315936        0.63745791
 C            0.85650061        2.43814084        2.33961632
 C            1.43218109        2.46636304        1.00808298
 C           -1.08206902        0.98904945        2.72313958
 C           -0.55766160        2.14535049        2.15542396
 C           -1.31122279       -1.31223552        2.01686269
 C           -1.65830075        0.03478299        1.87508470
 C            0.35544063       -2.43716019        0.73170640
 C           -0.96485648       -2.01076566        0.86465131
 C            2.15678932       -1.14994809       -0.17179489
 C            1.05480287       -1.98898298       -0.38910079
 C            2.47643631        1.18885362       -0.71559308
 C            2.48148365       -0.20036181       -1.12575792
 C            1.64999918        1.90302285       -1.67533475
 C            0.34811207        2.81528998        0.10411575
 C           -0.88416672        2.46470804        0.77995786
 C            0.46313891        2.48994886       -1.24114641
 C           -2.15464166        0.43005420        0.62722483
 C           -1.78791350        1.67285828        0.09193601
 C           -1.65421144       -1.70197468       -0.29763232
 C           -2.48736619       -0.58493769       -0.27014942
 C            0.33983274       -1.90368499       -1.58960885
 C           -1.04971676       -2.03456235       -1.50572230
 C            1.87751071       -0.27429998       -2.44114016
 C            1.63419809        1.09271825       -2.87882107
 C            0.90574473       -1.23896650       -2.68493337
 C            0.62361103        1.30570546       -3.80174195
 C           -0.70367131        2.25653056       -1.97600507
 C           -1.86265156        1.84085036       -1.29197487
 C           -0.56384932        2.01139274       -3.34485364
 C           -3.12257551       -0.22219589       -1.45264539
 C           -2.84128086        1.10678525       -1.95691922
 C           -1.82422750       -1.95314463       -2.65479238
 C           -3.01382640       -1.12704766       -2.58240020
 C            0.17924078       -1.13651913       -3.87170510
 C            0.15495939        0.15326046       -4.54426135
 C           -1.16739861       -1.67077298       -3.91315251
 C           -1.69061307        1.52252146       -4.11857480
 C           -2.85624215        1.05348903       -3.40659234
 C           -3.09118400       -0.32898487       -3.79170497
 C           -1.20826120        0.43341567       -4.95446281
 C           -2.00428662       -0.74365612       -4.66048042
