58
Modified xyz file
 C            1.28040805       -0.10694326        3.96536893
 C            2.53181777       -0.31050942        3.26230605
 C            2.48781694       -1.62725217        2.64544600
 C            0.44403212       -1.27435511        3.73622045
 C            1.18238404       -2.20299426        2.90109999
 C           -0.85925190       -0.81251425        3.29199572
 C            0.49437334        1.07542560        3.66282185
 C           -0.85360554        0.64254912        3.31762494
 C            1.07810244        2.11488107        2.95071454
 C            2.93337539        0.64915341        2.24608749
 C            2.26929574        1.86419152        2.14504779
 C            2.93719785       -1.49348534        1.27186049
 C            3.23845554       -0.09058030        1.03395440
 C            2.30697268       -2.21695790        0.26052428
 C            0.51916374       -2.83770557        1.86112234
 C            1.16312173       -2.96092877        0.55832820
 C           -1.50367796       -1.46549083        2.24540403
 C           -0.89146540       -2.55701938        1.62903835
 C           -2.52621560       -0.79522568        1.58387884
 C           -1.59680705        1.34143563        2.36377612
 C           -2.57585977        0.65872470        1.64796000
 C            0.21717212        2.99767368        2.19095926
 C           -1.13410775        2.56316140        1.87910375
 C            2.03349297        2.42428454        0.82596462
 C            0.88600429        3.29660382        0.93463905
 C            2.93444098        0.44407755       -0.21569884
 C            2.15775310        1.61008427       -0.29827578
 C            2.52568193       -1.80982706       -1.05335771
 C            2.95657724       -0.43999755       -1.28664681
 C            1.56010183       -2.14275992       -2.08841916
 C            0.10602320       -3.09595869       -0.43433504
 C           -1.16572346       -2.84795503        0.23027144
 C            0.30158169       -2.61958188       -1.72733448
 C           -2.91417373       -1.19837151        0.24098783
 C           -2.15570008       -2.14556778       -0.44725308
 C           -2.99865770        1.14963246        0.34361109
 C           -3.40426383       -0.00930788       -0.44343755
 C           -1.39050957        2.93005406        0.49555713
 C           -0.10845467        3.25051150       -0.11285755
 C           -2.31487389        2.20920435       -0.25665158
 C            1.35712445        1.85837579       -1.42885955
 C            0.20621371        2.65509415       -1.32754638
 C            2.43628075       -0.01817180       -2.56714943
 C            1.67757693       -1.12792699       -3.12199906
 C            1.59582999        1.15712561       -2.60934243
 C            0.47037816       -0.58685676       -3.71161503
 C            0.48872262        0.85740632       -3.50028116
 C           -0.81644859       -2.29057718       -2.49699975
 C           -2.10087738       -2.10853694       -1.83744313
 C           -0.71489869       -1.29306851       -3.55447672
 C           -3.36460624        0.04957710       -1.82878950
 C           -2.83603154       -1.08607069       -2.56082669
 C           -1.97888250       -0.58233772       -3.62214888
 C           -2.18020841        2.24051134       -1.64384592
 C           -0.85404928        2.44352246       -2.20561331
 C           -0.70311788        1.55164601       -3.34199214
 C           -2.86509048        1.25495980       -2.46006808
 C           -1.96991444        0.86496890       -3.53841023
