58
Modified xyz file
 C            1.43167812        0.12727720        4.29594348
 C            0.63270804       -1.05130260        4.01937543
 C            1.48515506       -1.98701821        3.32528809
 C            2.59543817        0.07570493        3.42480035
 C            2.67809417       -1.26428344        2.89747021
 C            2.49021734        1.18324414        2.49450645
 C            0.65390284        1.28721852        3.90440860
 C            1.49006430        2.08895218        3.03506378
 C           -0.58955879       -0.62081400        3.36627817
 C           -0.62278288        0.83173795        3.37655378
 C           -1.03256083       -1.27803833        2.22658935
 C            0.95815777       -2.65519339        2.15191872
 C           -0.34218157       -2.39207120        1.72250771
 C            2.78406375       -1.44283142        1.46306323
 C            2.01371030       -2.63175670        1.16290237
 C            2.51612531        0.95513053        1.11345332
 C            2.67745174       -0.34728229        0.60226615
 C            2.09402585        1.98797581        0.26855600
 C            0.84394302        2.93015940        2.14944691
 C            1.38218026        3.05801706        0.81089535
 C           -1.15120037        1.51164764        2.27528931
 C           -0.58771296        2.74988679        1.96749725
 C           -1.92488457       -0.60621996        1.39984055
 C           -1.81959501        0.78426584        1.27317923
 C           -2.59739165       -1.34335201        0.43766513
 C           -0.72079282       -2.89595835        0.47570603
 C           -1.99395959       -2.58923327        0.00296515
 C            1.65832573       -2.86182045       -0.15254838
 C            0.28245769       -3.23343763       -0.43898290
 C            2.42876811       -0.60059104       -0.75154913
 C            2.03212632       -1.87603032       -1.15359916
 C            2.09498609        1.79644700       -1.11065074
 C            2.27365159        0.45813892       -1.63604921
 C            1.11444702        2.48039919       -1.94692640
 C            0.32871681        3.68128002        0.03167551
 C           -0.92445948        3.39834785        0.72081620
 C            0.15883117        3.29760832       -1.35618597
 C           -2.20605089        1.40798149        0.07182807
 C           -1.77599044        2.70237010       -0.21405158
 C           -1.25037549        2.98590011       -1.53522041
 C           -3.11504235       -0.67079193       -0.73471823
 C           -2.72632010        0.64326362       -0.97725357
 C           -2.29924770       -2.76237871       -1.40784460
 C           -3.13258022       -1.64454315       -1.81597952
 C            0.08607783       -2.98530750       -1.85810077
 C            1.10248012       -2.02197131       -2.26526107
 C           -1.20356849       -2.86840438       -2.35334963
 C            1.40458658        0.30581967       -2.79601419
 C            0.71097537        1.56933841       -3.00559579
 C            0.73985222       -0.90250097       -3.01164849
 C           -1.63440708        2.15612853       -2.57565518
 C           -2.59675669        1.10822945       -2.29099358
 C           -0.61342058        1.55978192       -3.42650655
 C           -2.70563562       -1.24039400       -3.13944750
 C           -1.45595411       -1.92799860       -3.42993259
 C           -0.45506665       -0.91728654       -3.73108145
 C           -2.49845140        0.16956167       -3.39407232
 C           -1.16725033        0.32699747       -3.95853098
