58
Modified xyz file
 C            1.17525962       -0.06176498        4.10410277
 C            2.37858846       -0.26491885        3.32205621
 C            2.26386814       -1.56699200        2.68484829
 C            0.32828902       -1.22993332        3.90917566
 C            0.89335465       -2.00108501        2.81646083
 C           -1.03495309       -0.76753076        3.79614947
 C            0.36140676        1.11616854        3.86074193
 C           -1.02243428        0.68708781        3.84995315
 C            0.77807807        2.06988009        2.93777581
 C            2.73045357        0.69868207        2.29189540
 C            1.98741984        1.86036996        2.14629877
 C            2.79792503       -1.44736532        1.35239687
 C            3.10918751       -0.04882938        1.10675283
 C            2.18850892       -2.13958292        0.32055628
 C            0.14841120       -2.21532832        1.65236337
 C            0.82033707       -2.45401804        0.43651006
 C           -1.79638336       -1.14890879        2.62607919
 C           -1.23516900       -1.97823766        1.65928878
 C           -1.90570808        1.17362974        2.80352700
 C           -2.53992221        0.01872505        2.18813726
 C           -0.20112598        2.72143827        2.07801719
 C           -1.50857263        2.22846838        1.98936702
 C            1.73570060        2.37028513        0.80912499
 C            0.50656677        3.13924565        0.87377196
 C            2.84539731        0.45904985       -0.16914235
 C            1.99270224        1.56459314       -0.30281618
 C            2.69219545       -1.84525590       -0.93408065
 C            2.95408277       -0.44409165       -1.22438891
 C            2.07135258       -2.43759962       -2.08984263
 C            0.08045552       -2.78383214       -0.71272791
 C            0.72062328       -2.92618748       -1.94524159
 C           -1.95586548       -2.12983221        0.48522870
 C           -1.30356638       -2.64905065       -0.69660488
 C           -2.93988806        0.09442957        0.85477685
 C           -2.84960900       -1.05502777        0.07030135
 C           -2.24304141        2.45474392        0.83044283
 C           -2.97632409        1.34394317        0.23658976
 C           -0.20746983        3.35733369       -0.29060236
 C           -1.64994999        3.22491234       -0.24606876
 C            1.24688351        1.75393337       -1.47830439
 C            0.24968512        2.73268869       -1.52051321
 C            2.32125814       -0.14881336       -2.49209519
 C            2.06336438       -1.42990592       -3.13441708
 C            1.36643496        0.86056540       -2.54770790
 C            0.01304535       -2.56277009       -3.16436049
 C            0.84109946       -1.60844474       -3.88988292
 C           -1.98991998       -2.08463920       -1.84969176
 C           -2.76925870       -0.94738791       -1.37836063
 C           -1.32587974       -2.00871524       -3.06486505
 C           -2.85222981        1.44762211       -1.21095719
 C           -2.08399167        2.64549851       -1.50394682
 C           -0.91972886        2.52347567       -2.35932954
 C           -2.62099549        0.30531083       -1.97232865
 C            0.36768229        0.81827112       -3.52447975
 C            0.03092845       -0.44196278       -4.16598220
 C           -1.34029646       -0.75483456       -3.79474668
 C           -0.89413354        1.48317807       -3.27174894
 C           -1.89412892        0.42931643       -3.15745598
