58
Modified xyz file
 C            1.08212720        0.06430822        4.48785260
 C            0.39258238       -1.20609227        4.60745700
 C            1.01923935       -2.13744402        3.68733783
 C            2.13206222       -0.09051493        3.49531708
 C            2.02775718       -1.41551162        2.92624969
 C            2.03802544        1.03466843        2.59587980
 C            0.13869006        1.03517608        3.95983915
 C            0.80178491        1.73278309        2.88396151
 C           -0.97174845       -1.01308918        4.15130681
 C           -1.09664090        0.34889853        3.65436027
 C           -0.04084820       -2.80876031        2.95863343
 C           -1.28732948       -2.10483971        3.24910308
 C            0.22402015       -3.20396334        1.65376229
 C            2.04366870       -1.55185824        1.53787353
 C            1.38242760       -2.63919136        0.97330845
 C            2.33560492        0.84918178        1.25387571
 C            2.36084955       -0.45237572        0.72693303
 C            1.97731604        1.88522891        0.39593155
 C            0.05792000        2.13541910        1.78464726
 C            0.78238153        2.56002478        0.67439288
 C           -1.68727103        0.55507323        2.40732545
 C           -1.20297878        1.56018992        1.55744200
 C           -2.17613255       -1.84854760        2.21307875
 C           -2.47133019       -0.46290626        1.87136609
 C           -0.85889627       -3.24751410        0.68771450
 C           -2.04553758       -2.57739810        0.96424330
 C            1.10348704       -2.64695620       -0.45151455
 C           -0.25866895       -3.12480194       -0.63034343
 C            2.35718866       -0.60250882       -0.66654704
 C            1.56713216       -1.60416353       -1.24849344
 C            2.45290925        1.81552689       -0.90574682
 C            2.73762322        0.49635026       -1.43397984
 C            1.82252561        2.59289519       -1.95611835
 C            0.06617658        3.16335821       -0.34956334
 C            0.63678810        3.26250670       -1.67981233
 C           -1.79771819        1.74382891        0.30168553
 C           -1.32804855        2.79229372       -0.48654938
 C           -2.83395924       -0.42341722        0.46604405
 C           -2.66593511       -1.76539069       -0.06937092
 C           -2.45842134        0.66913081       -0.31039939
 C           -1.01023852       -2.61016419       -1.67571041
 C           -2.25439613       -1.90757298       -1.38578142
 C            0.96490267       -1.39556357       -2.49713131
 C           -0.32963678       -1.86264731       -2.71862600
 C            2.44235662        0.51414843       -2.85252181
 C            1.98258456        1.85109335       -3.19768397
 C            1.47607847       -0.43320674       -3.36161758
 C            0.86029769        1.71338995       -4.10871632
 C            0.55864180        0.29576542       -4.22662594
 C           -0.46775929        3.23484122       -2.62669521
 C           -1.66006445        2.83084269       -1.89653053
 C           -0.37794562        2.41264246       -3.82017614
 C           -2.43572534        0.52483085       -1.70466051
 C           -2.30418140       -0.74758250       -2.25847552
 C           -1.31375277       -0.96579796       -3.29726486
 C           -0.87282730        0.12111833       -4.03910757
 C           -2.17094551        1.62632857       -2.51173493
 C           -1.44621172        1.42793640       -3.75942377
