58
Modified xyz file
 C            1.46545914       -0.17566348        4.33771493
 C            0.59693975       -1.33993339        4.34034642
 C            1.13448192       -2.29875973        3.39094156
 C            2.53737818       -0.42296044        3.39098054
 C            2.39285627       -1.77833774        2.88878038
 C            2.55561173        0.67465757        2.43518278
 C            0.69729204        0.94972799        3.83724103
 C            1.42987209        1.54254473        2.72935667
 C           -0.70468266       -0.92437505        3.84860574
 C           -0.66041661        0.49950101        3.58615411
 C            0.08522449       -2.62232371        2.43643205
 C           -1.06963384       -1.79932967        2.75274992
 C            0.42251520       -2.80217150        1.09549397
 C            2.71213218       -2.01603521        1.56118900
 C            1.77049495       -2.74854626        0.72882755
 C            2.84312811        0.39776650        1.10431455
 C            3.18405540       -0.90909292        0.74760710
 C            2.37513874        1.26704608        0.11758728
 C            0.69385530        2.05543386        1.66597979
 C            1.26746491        2.08702994        0.39072566
 C           -1.28671994        0.97002226        2.43906524
 C           -0.69517977        2.03412809        1.76970211
 C           -1.78878462       -1.26348476        1.69406036
 C           -2.09386882        0.10230630        1.69823705
 C           -0.56122382       -2.59740560        0.12136493
 C           -1.73847361       -1.92646989        0.47447202
 C           -0.22257748       -2.74665733       -1.22321304
 C            2.13371523       -2.46573403       -0.65242843
 C            3.04873843       -1.33013456       -0.63798867
 C            1.15565427       -2.55036519       -1.63296663
 C            2.75658402        1.02101105       -1.19747765
 C            2.94853056       -0.35411695       -1.61890139
 C            2.10143562        1.72071655       -2.27874191
 C            0.54677244        2.69372930       -0.64989370
 C            0.95406971        2.54622276       -1.97452951
 C           -1.43772154        2.65580734        0.78314506
 C           -0.74805360        3.14196398       -0.39612212
 C           -2.80863026        0.63222329        0.61769426
 C           -2.64197703        1.98963856        0.32290737
 C           -2.65006685       -1.54243697       -0.50149815
 C           -3.29027139       -0.24759994       -0.35684513
 C           -1.07017235       -2.17560643       -2.25339164
 C           -2.33289269       -1.72654845       -1.90801754
 C            1.15797432       -1.60761391       -2.74246061
 C            2.08714992       -0.57553764       -2.76867102
 C            1.68325174        0.72754289       -3.25990564
 C           -0.22882244       -1.34826701       -3.10869825
 C           -0.03876844        2.27827204       -3.00404198
 C            0.28361671        0.97391486       -3.55975164
 C           -0.64642598       -0.06130696       -3.46173940
 C           -1.72171371        3.17406924       -1.47787361
 C           -2.92733585        2.51014825       -1.00435831
 C           -1.36725167        2.59912259       -2.76315817
 C           -3.62202644        0.22308055       -1.69228150
 C           -2.89562529       -0.60649511       -2.63923793
 C           -2.00141506        0.25800183       -3.38950462
 C           -3.37734671        1.60683580       -2.04053458
 C           -2.39331494        1.63084463       -3.11262666
