58
Modified xyz file
 C            1.41788835        0.10295715        4.27255124
 C            0.68358591       -1.14926827        4.26862977
 C            1.46679944       -2.11609289        3.52339191
 C            2.52832818       -0.03202389        3.34431902
 C            2.57744857       -1.40824405        2.90705422
 C            2.39050788        1.00261597        2.33754979
 C            0.53718390        1.13354345        3.75251587
 C            1.23037885        1.80515997        2.67035799
 C           -0.67595116       -0.87217985        3.83318433
 C           -0.74750770        0.53093088        3.45557760
 C           -1.33504668       -1.80691390        3.04759731
 C            0.80273401       -2.88971024        2.48965068
 C           -0.58498861       -2.91580541        2.46234592
 C            2.53613670       -1.67743440        1.48384399
 C            1.52850592       -2.69005815        1.23967514
 C            2.59324862        0.70098202        0.99314237
 C            2.64355441       -0.63811321        0.57062088
 C            2.20436431        1.66647456        0.06073969
 C            0.47629772        2.29002976        1.60917121
 C            1.12833620        2.50033724        0.39287811
 C           -1.37314145        0.89881229        2.26518636
 C           -0.89677678        2.02261556        1.59103709
 C           -2.26174543       -1.33449024        2.03539413
 C           -2.16515463       -0.02418572        1.57082321
 C           -1.23305338       -3.26169380        1.21470542
 C           -2.39429037       -2.39890549        1.07042694
 C            0.83169803       -2.66560158        0.02609235
 C           -0.46722596       -3.16349116       -0.01612245
 C            2.31670788       -0.92038535       -0.74955285
 C            1.26595258       -1.81660878       -1.00206724
 C            2.51327463        1.42771007       -1.27650569
 C            2.63670179        0.04544692       -1.68966643
 C            1.81568602        2.14192953       -2.33064021
 C            0.44543402        3.19942902       -0.59864366
 C            0.74146759        2.95610237       -1.99982689
 C           -1.65801781        2.52886757        0.54688128
 C           -0.99295461        3.32983763       -0.46501378
 C           -2.62085748        0.29173243        0.28035055
 C           -2.57364288        1.62593929       -0.12909330
 C           -2.48856413       -2.03609783       -0.32392827
 C           -1.37812652       -2.66490090       -1.02414541
 C           -2.81192790       -0.72768115       -0.66933922
 C            0.48979410       -1.68278416       -2.16725987
 C           -0.87384151       -2.00787873       -2.13770081
 C            2.12009457       -0.07632579       -3.03316912
 C            1.72686915        1.25236743       -3.47629084
 C            1.00280576       -0.96810342       -3.25361825
 C            0.46505794        1.12367937       -4.17800310
 C            0.09710287       -0.28413508       -4.16213682
 C           -0.52622273        2.83721531       -2.71388255
 C           -1.59696498        3.02549848       -1.74884232
 C           -2.56690117        1.96204866       -1.54423773
 C           -0.68239238        1.88733776       -3.71879293
 C           -2.72435650       -0.42946130       -2.02716331
 C           -1.77733932       -1.19566079       -2.81768622
 C           -1.32419800       -0.36436990       -3.91048567
 C           -2.66299274        0.94649018       -2.48135699
 C           -1.81976308        0.98251454       -3.67052247
