58
Modified xyz file
 C            1.57417712        0.03475348        3.93960895
 C            0.74724052       -1.14779767        3.80262189
 C            1.27790658       -1.95928808        2.71735107
 C            2.62477510       -0.04858503        2.94502347
 C            2.40639401       -1.24576818        2.14814648
 C            2.67527504        1.22757115        2.25944639
 C            0.74960477        1.18302098        3.60331614
 C            1.43337880        1.92691829        2.56031271
 C           -0.63116429       -0.70691874        3.70648143
 C           -0.59158665        0.69969396        3.33501889
 C           -1.51241004       -1.53672339        3.03541672
 C            0.36759393       -2.58678091        1.87253723
 C           -0.95586669       -2.66547484        2.31273510
 C            0.64578521       -2.66679844        0.50031534
 C            2.52670952       -1.15092978        0.76628773
 C            1.70314047       -1.92891483       -0.05154026
 C            3.12347690        1.23162593        0.94843856
 C            3.17586417       -0.03471316        0.23161678
 C            2.56776537        2.20503349        0.02724287
 C            0.68676781        2.44656023        1.50416698
 C            1.35998710        2.82595313        0.33960175
 C           -1.22136082        1.11707748        2.16443003
 C           -0.69148202        2.19504840        1.45533969
 C           -2.47074998       -0.93962585        2.12581322
 C           -2.17384844        0.29357293        1.55408474
 C           -1.99449393       -3.11688482        1.41050825
 C           -2.93831270       -2.01378543        1.27200621
 C           -0.24865104       -3.32529503       -0.34889433
 C           -1.61452921       -3.54593453        0.08379865
 C           -0.31386026       -2.95391828       -1.75202118
 C            1.83553255       -1.83470452       -1.43790507
 C            0.73941264       -2.23810579       -2.30035347
 C            3.06491595        0.26458084       -1.18761302
 C            2.77650199        1.68642039       -1.31508545
 C            2.43586866       -0.64752755       -2.02154544
 C            1.96112453        2.14181718       -2.34373070
 C            0.66099131        3.47634758       -0.67224325
 C            1.01702841        3.20909432       -2.05710404
 C           -1.44652279        2.72961417        0.41965971
 C           -0.78471921        3.52983504       -0.59229792
 C           -2.60702967        0.58064285        0.25346808
 C           -2.40924277        1.86829937       -0.24455150
 C           -3.10366011       -1.75428762       -0.14278487
 C           -2.47789925       -2.85502895       -0.85699131
 C           -1.68582274       -2.55153069       -2.03654697
 C           -2.92830099       -0.46140259       -0.62959084
 C           -1.91989016       -1.34684850       -2.68759623
 C           -2.67209137       -0.31378264       -1.99185333
 C            0.47116926       -1.13766679       -3.21542030
 C            1.55556387       -0.17625839       -3.08061495
 C            1.29945328        1.18520251       -3.21902030
 C           -0.83355993       -0.69010929       -3.39404392
 C           -0.20756188        2.93885521       -2.79161052
 C           -1.32327300        3.15233710       -1.88865999
 C           -2.27386368        2.07550970       -1.67758592
 C           -2.25417179        0.97118320       -2.51755247
 C           -0.06281213        1.64733472       -3.44053540
 C           -1.11466732        0.73748667       -3.39950210
