58
Modified xyz file
 C            1.45293278        0.13372122        4.15367391
 C            0.64482678       -1.06036761        3.98253856
 C            1.46390939       -2.04690711        3.31936183
 C            2.65420661       -0.02945935        3.35043871
 C            2.68687706       -1.39154390        2.87662707
 C            2.67528998        1.03563882        2.37059195
 C            0.70604884        1.25460988        3.60883016
 C            1.53721096        1.90621550        2.62680752
 C           -0.60338459       -0.67019003        3.35203518
 C           -0.58128541        0.77160665        3.17397081
 C           -1.13780580       -1.44709493        2.32229811
 C            0.90234186       -2.73465840        2.17680435
 C           -0.44350483       -2.58305368        1.86453629
 C            2.81736182       -1.62380333        1.44999387
 C            1.86344568       -2.66074365        1.09072226
 C            3.01127439        0.76868011        1.04117514
 C            3.01412023       -0.55889045        0.57136465
 C            2.81112303        1.81738689        0.14325050
 C            0.93571096        2.50700906        1.52751013
 C            1.78638236        2.79429631        0.47010468
 C           -1.12139999        1.28307654        2.00188780
 C           -0.42103267        2.24536523        1.25352023
 C           -2.10029685       -0.85143517        1.49818952
 C           -2.11839108        0.54280841        1.37928104
 C           -2.78128912       -1.63840915        0.57455709
 C           -0.85172900       -3.18235754        0.67983606
 C           -2.15958263       -2.86906626        0.14581094
 C            1.38812157       -2.72890458       -0.22004033
 C            0.09323507       -3.20834455       -0.42940161
 C            2.84390798       -0.82279848       -0.78638147
 C            1.98451240       -1.92687296       -1.19322164
 C            2.73247312        1.56598196       -1.28394375
 C            2.66336697        0.26087758       -1.73383089
 C            1.23760001        3.30260561       -0.76186991
 C            1.84377477        2.55941946       -1.85760253
 C           -1.00223926        2.72626990        0.06576297
 C           -0.19642141        3.25950949       -0.94276382
 C           -2.86222593        1.15814440        0.38280642
 C           -2.29831773        2.32709874       -0.26643819
 C           -3.37752690       -1.02420158       -0.59843183
 C           -3.53464893        0.35535613       -0.62441996
 C           -2.04714381       -2.82417937       -1.30148997
 C           -0.63364097       -2.84068905       -1.63554247
 C           -2.85949445       -1.72098079       -1.77290193
 C            1.21748079       -1.49161489       -2.35263336
 C            1.62058479       -0.13064064       -2.67383513
 C           -0.11789689       -1.86000301       -2.47954895
 C            0.76898081        2.13089650       -2.73566624
 C           -0.42000235        2.86191439       -2.32310961
 C            0.65920741        0.78745036       -3.09633623
 C           -2.69457006        2.28742238       -1.66648596
 C           -3.44382784        1.06166009       -1.89043618
 C           -1.66749326        2.38131850       -2.68883620
 C           -2.40170014       -0.98731948       -2.85904141
 C           -0.98530629       -1.03701592       -3.20138870
 C           -0.56466859        0.31038736       -3.55704830
 C           -2.85693312        0.38050240       -3.02801081
 C           -1.73254854        1.17431598       -3.49363033
