58
Modified xyz file
 C            1.50774600       -0.00667323        3.86441008
 C            0.67885294       -1.18623738        3.72590068
 C            1.15817630       -1.95242506        2.58669348
 C            2.53354865       -0.06847946        2.84043172
 C            2.31641588       -1.25885138        2.04598252
 C            2.53506979        1.20239178        2.15203343
 C            0.66873246        1.14541722        3.57578724
 C            1.31799929        1.90483956        2.53728226
 C           -0.69925578       -0.74001193        3.70512418
 C           -0.67199181        0.66631400        3.33013813
 C           -1.61398456       -1.55603919        3.06653728
 C            0.20887622       -2.49069821        1.71722738
 C           -1.09962547       -2.59865370        2.18938630
 C            0.45038163       -2.45780585        0.33437064
 C            2.44855025       -1.15405400        0.66973224
 C            1.68649553       -1.99975506       -0.13580710
 C            2.88908637        1.22696790        0.80711910
 C            3.00668541        0.01062006        0.12185280
 C            2.51627433        2.36121142        0.09262061
 C            0.55421020        2.47483675        1.52609520
 C            1.28350590        3.02727156        0.47952192
 C           -1.34505642        1.07049657        2.17434904
 C           -0.75071262        1.99111334        1.28413682
 C           -2.68670356       -0.92749036        2.32675035
 C           -2.47159642        0.34103789        1.78204262
 C           -2.16669211       -2.93477722        1.26999722
 C           -3.24325210       -1.98266499        1.49983936
 C           -0.60069872       -2.61469434       -0.58183272
 C           -1.88210977       -2.92806520       -0.14584253
 C           -0.46063954       -2.08493258       -1.86017052
 C            1.94041448       -2.02990728       -1.50449322
 C            0.80868179       -2.04773010       -2.41437984
 C            3.31625467        0.02717475       -1.23589037
 C            2.92757264       -1.11344883       -2.04437705
 C            2.59865358        2.36656520       -1.35717737
 C            3.05300275        1.23047939       -2.01254681
 C            0.60423000        3.44509360       -0.71971130
 C            1.41660652        3.05067940       -1.86057574
 C           -1.43290692        2.36081367        0.10688388
 C           -0.73824600        2.96836646       -0.93695416
 C           -3.19926154        0.74772463        0.67020151
 C           -2.60777999        1.70122909       -0.24278026
 C           -3.81045369       -1.63753459        0.21400568
 C           -3.00589231       -2.28985566       -0.80894054
 C           -3.90825537       -0.23577417       -0.13630937
 C           -1.42790280       -1.19051221       -2.32553168
 C           -2.71225903        1.15108182       -1.58917373
 C           -2.72945152       -1.31183593       -1.84980621
 C           -3.43744123       -0.09870332       -1.50270351
 C            0.55171192        2.37483042       -2.81580437
 C           -0.78583730        2.34579102       -2.25068705
 C           -1.01795913        0.03085580       -2.87413454
 C           -1.59105374        1.22345035       -2.40981594
 C            1.06725074       -1.08638392       -3.46806868
 C            2.43289835       -0.61925563       -3.31782933
 C            2.39694921        0.82875688       -3.24566306
 C            0.19373676        0.06935774       -3.56212143
 C            1.02844888        1.25848253       -3.48732525
