58
Modified xyz file
 C            1.45566249        0.05498508        4.01616089
 C            0.67534160       -1.15956622        3.87996814
 C            1.24132085       -1.94400143        2.79879309
 C            2.52244443        0.00801730        3.03284967
 C            2.39375385       -1.21643477        2.27916694
 C            2.48734187        1.24779807        2.29823929
 C            0.58865819        1.17021296        3.66986816
 C            1.22704871        1.90710154        2.60980101
 C           -0.71269079       -0.77034879        3.77896525
 C           -0.73199140        0.64452363        3.42541750
 C           -1.56899196       -1.61661683        3.09740005
 C            0.37902094       -2.58015560        1.90385381
 C           -0.99874068       -2.56901402        2.14505659
 C            0.84526220       -2.87013990        0.62419308
 C            2.59396995       -1.17353482        0.90378656
 C            2.03917541       -2.19622969        0.13918468
 C            2.88385316        1.25178269        0.96834028
 C            2.98738013        0.02460638        0.28279821
 C            2.51869879        2.38883320        0.25780676
 C            0.46359909        2.37967176        1.54513241
 C            1.19049785        2.92693205        0.49788516
 C           -1.43626588        1.04991532        2.28861505
 C           -0.78761556        1.79013243        1.27960497
 C           -2.72144572       -1.01566979        2.46029736
 C           -2.60214003        0.35497563        1.99323778
 C           -1.93055734       -2.69204800        1.03027927
 C           -3.06802312       -1.83932671        1.32152985
 C           -0.08857464       -2.97145654       -0.48824028
 C           -1.44685804       -2.74888445       -0.27701911
 C            1.91719878       -2.04979579       -1.29994752
 C            0.55870887       -2.40909531       -1.66576809
 C            3.19723687        0.01989493       -1.10077710
 C            2.52097715       -0.97232327       -1.91996302
 C            2.79770783        2.47638511       -1.15609137
 C            3.18597521        1.26812695       -1.84511598
 C            0.56578218        3.12871908       -0.78573488
 C            1.60655204        3.00399509       -1.79960268
 C           -1.34550474        1.86319408       -0.01823879
 C           -0.68048415        2.57309722       -1.03573188
 C           -3.15053782        0.40306692        0.65797630
 C           -3.53866681       -0.95412300        0.28188721
 C           -2.56955046        1.22723209       -0.29903506
 C           -2.22348059       -2.23998241       -1.32367695
 C           -3.34079244       -1.34566954       -1.03036409
 C           -0.17705912       -1.59616760       -2.52392636
 C           -1.56406153       -1.74034792       -2.52301683
 C            1.79955462       -0.26684304       -2.96469883
 C            2.29727601        1.10097670       -2.98465602
 C            1.34122594        2.19749270       -2.97790654
 C            0.43407457       -0.49322241       -3.14527017
 C           -1.01537528        2.35904008       -2.37032196
 C            0.01999807        1.91830950       -3.28946219
 C           -0.33833193        0.55839434       -3.64421411
 C           -2.97060466        1.03351667       -1.62063786
 C           -3.33823322       -0.30620619       -2.03773291
 C           -2.40638917       -0.70103297       -3.07694815
 C           -2.19895198        1.60196300       -2.69781934
 C           -1.78337856        0.50534447       -3.56617726
