58
Modified xyz file
 C            1.46341962       -0.23909532        4.34828874
 C            0.66313375       -1.44937326        4.29927128
 C            1.26081589       -2.33502546        3.31654168
 C            2.52019717       -0.36007222        3.35778187
 C            2.46035725       -1.69797278        2.80125405
 C            2.42314396        0.77672284        2.45358237
 C            0.61533373        0.86507281        3.94210138
 C            1.31090343        1.59834419        2.90150356
 C           -0.65929729       -1.09061965        3.81445606
 C           -0.70193122        0.34409862        3.62562846
 C            0.22183484       -2.72099380        2.37435539
 C           -0.95939592       -1.93147946        2.67561985
 C            0.56364194       -2.90287057        1.03605215
 C            2.74998893       -1.85881410        1.45623519
 C            1.89557121       -2.72094838        0.65923222
 C            2.59934407        0.57460628        1.08151242
 C            3.01097906       -0.68119349        0.63820771
 C            1.98663789        1.45750720        0.18088066
 C            0.54465155        2.21873473        1.92945938
 C            1.13637813        2.44524577        0.69494130
 C           -1.32736060        0.84735700        2.48952471
 C           -0.83861945        2.03795012        1.96449371
 C           -1.65607622       -1.38367491        1.60853975
 C           -2.00026896       -0.02463251        1.62516710
 C           -0.43414303       -2.76269931        0.06542133
 C           -1.59222986       -2.04417931        0.38741231
 C           -0.09831744       -2.98142810       -1.27158563
 C            2.20243245       -2.41545309       -0.72409532
 C            2.76632684       -1.06899379       -0.73910349
 C            1.27472118       -2.75712341       -1.69419971
 C            1.97027210        1.16005262       -1.19235410
 C            2.26423889       -0.13264729       -1.63656071
 C            1.41717110        2.07048036       -2.09179732
 C            0.49324784        3.33074291       -0.15931154
 C            0.71735623        3.23138644       -1.58452526
 C           -1.60493674        2.68053654        1.00311365
 C           -0.92547795        3.54661630        0.05401663
 C           -2.66713871        0.51464712        0.51595485
 C           -2.57468691        1.88889080        0.26395148
 C           -2.48394480       -1.65827925       -0.60382791
 C           -3.09143624       -0.34368358       -0.50009247
 C           -0.97474754       -2.51301940       -2.33279869
 C           -2.17794017       -1.90863266       -2.00152166
 C            1.23356138       -1.95803746       -2.90265595
 C            1.71863418       -0.59210598       -2.83642507
 C           -0.14188484       -1.91676693       -3.36544387
 C            0.66174999        1.57507843       -3.22955788
 C            0.77868074        0.23664346       -3.57109829
 C           -0.41861284       -0.55956629       -3.81051771
 C           -0.57673743        3.30196686       -2.24932174
 C           -1.59721482        3.42946208       -1.22675073
 C           -2.60532702        2.39184279       -1.10583761
 C           -0.65362519        2.19346572       -3.18375387
 C           -3.26822680        0.16805359       -1.84818886
 C           -2.63141805       -0.75895367       -2.76839355
 C           -1.67427445       -0.01216407       -3.56945306
 C           -2.79663231        1.50290445       -2.15509433
 C           -1.79282258        1.39208947       -3.21023492
