58
Modified xyz file
 C            1.28199376        0.16800722        4.00005055
 C            2.50382691       -0.01525612        3.24473521
 C            2.53483530       -1.39594837        2.79700230
 C            0.45505551       -1.01503276        3.79678537
 C            1.19010378       -1.92730892        2.94316239
 C           -0.85770007       -0.57026508        3.36962585
 C            0.46347239        1.32569176        3.70774614
 C           -0.90519187        0.86090610        3.56687668
 C            0.76399921        2.12564667        2.53040930
 C            2.74049860        0.81368753        2.07536206
 C            1.76533501        1.72315913        1.65249871
 C            3.14932895       -1.41619072        1.47903508
 C            3.40196084       -0.03261516        1.09694058
 C            2.64784053       -2.30298320        0.53389543
 C            0.56199087       -2.46591001        1.82434324
 C            1.35928048       -2.93191240        0.77967967
 C           -1.39987570       -1.08877009        2.19835878
 C           -0.78847527       -2.19037168        1.58564038
 C           -2.35933035       -0.34100142        1.50029821
 C           -1.52569439        1.66230564        2.53444467
 C           -0.50879044        2.55102851        1.98871155
 C           -2.39905565        1.05424322        1.63865194
 C           -0.60534713        2.88975498        0.64379069
 C            1.64337462        2.02315309        0.29302616
 C            0.50029761        2.67495499       -0.19494017
 C            3.34578832        0.33253881       -0.23985891
 C            2.58281271        1.51170536       -0.60341409
 C            2.70236561       -1.95761336       -0.87727041
 C            3.08850635       -0.67649861       -1.25741924
 C            0.76076034       -3.23812595       -0.50861647
 C            1.57451224       -2.60220868       -1.53499538
 C           -1.42013210       -2.81229203        0.51252530
 C           -0.62285226       -3.24182558       -0.62400582
 C           -3.07595769       -0.94799353        0.47224036
 C           -2.65417093       -2.25210441       -0.00249966
 C           -3.45268921       -0.16716491       -0.69241207
 C           -2.80157965        1.83358598        0.55678780
 C           -1.88937906        2.86765529        0.10189277
 C           -3.39176411        1.21512778       -0.61900446
 C           -2.08577692        3.04398247       -1.32022158
 C           -2.93700257        1.95845640       -1.78310362
 C            0.38742333        2.90504879       -1.57071907
 C           -0.91989544        3.09239128       -2.17209342
 C            2.24334797        1.38314139       -2.00801898
 C            2.41902309       -0.01652345       -2.36915822
 C            1.15627195        2.09094920       -2.49537710
 C            0.96382974       -1.98981612       -2.62411770
 C            1.41779170       -0.68123737       -3.07015154
 C           -1.24946021       -2.71892844       -1.82812505
 C           -2.54418304       -2.18532489       -1.45270030
 C           -2.89956529       -0.83778865       -1.85973614
 C           -0.48375397       -2.03575233       -2.76473254
 C           -2.21996894        1.25164859       -2.82969394
 C           -1.07865880        2.07234673       -3.19729642
 C            0.21105092        1.43634022       -3.38871374
 C            0.25842753        0.05697744       -3.54513205
 C           -2.07036001       -0.13040219       -2.73121702
 C           -0.92849508       -0.73926813       -3.25977205
