58
Modified xyz file
 C            1.27795606        0.03532616        4.53954899
 C            0.52669323       -1.13096280        4.10993041
 C            1.41690272       -1.98276026        3.35871522
 C            2.57311683       -0.00785128        3.88080963
 C            2.64640281       -1.24023052        3.12311170
 C            2.74728722        1.24548440        3.18022988
 C            0.57728659        1.21693489        4.05999285
 C            1.53278055        2.03422548        3.35714324
 C           -0.67465005       -0.66514964        3.45136236
 C           -0.60479190        0.77908937        3.34623676
 C           -1.16417815       -1.34741276        2.34681148
 C            0.95738837       -2.48053231        2.07565080
 C           -0.36877486       -2.30068184        1.68867730
 C            2.85054307       -1.18479030        1.68287265
 C            1.98315459       -2.18808084        1.09710300
 C            3.03551762        1.23346976        1.75501467
 C            2.99544641        0.03848717        1.02622957
 C            1.17088719        2.54903070        2.05023610
 C            2.35019015        2.39339020        1.22248534
 C           -0.95063115        1.35816404        2.12071948
 C           -0.07823673        2.25859840        1.48858192
 C           -2.11073589       -0.67754888        1.58715622
 C           -1.89665283        0.68631842        1.34224003
 C           -2.79004000       -1.43371100        0.64929934
 C           -0.68876873       -2.60795157        0.36088109
 C           -2.01750646       -2.44852655       -0.03470414
 C            1.58107019       -2.02761310       -0.21966762
 C            0.33044434       -2.52364624       -0.59757679
 C            2.71988684        0.09808593       -0.34473287
 C            2.17139442       -1.02031137       -0.98474831
 C            2.18645851        2.47780532       -0.14409342
 C            2.61392964        1.35138858       -0.95012448
 C           -0.25039694        2.52432537        0.12534823
 C            0.87514286        2.83025022       -0.64594160
 C           -2.28883582        1.23805456        0.12044594
 C           -1.42922966        2.13912568       -0.52010397
 C           -3.61545736       -0.75689169       -0.32428681
 C           -3.34591691        0.64178338       -0.57145644
 C           -2.36363396       -2.38964541       -1.44558725
 C           -3.47405589       -1.46222750       -1.58656483
 C            0.02347552       -2.58126774       -1.95436960
 C           -1.34988412       -2.40565653       -2.39369990
 C            1.87545511       -0.95720515       -2.34533889
 C            0.88026833       -1.86861285       -2.88437515
 C            1.93310958        1.48263546       -2.22943488
 C            0.88943188        2.48604369       -2.05536663
 C            1.67072692        0.33928195       -2.96918761
 C           -1.53081330        2.36134184       -1.89734974
 C           -0.32490692        2.33474136       -2.70220514
 C           -3.49869149        0.84548121       -1.99830522
 C           -3.43687433       -0.46245850       -2.63647500
 C           -2.56617553        1.71333073       -2.67577504
 C           -1.35168473       -1.44877903       -3.49589029
 C            0.03182865       -1.12294587       -3.80013163
 C            0.46165781        0.26531860       -3.77566491
 C           -0.49033652        1.27658356       -3.68597223
 C           -2.31809576       -0.44819620       -3.56106913
 C           -1.90587803        0.93755129       -3.71663468
