58
Modified xyz file
 C            1.50893505       -0.01715182        4.30585655
 C            0.70635570       -1.20361440        4.06071646
 C            1.52220094       -2.12119327        3.30462856
 C            2.64028039       -0.06339558        3.39490115
 C            2.71929945       -1.40527805        2.87431550
 C            2.49873127        1.03007811        2.45624794
 C            0.70197181        1.13596212        3.94967824
 C            1.39169818        1.86329586        2.90102636
 C           -0.55617431       -0.77187363        3.49299307
 C           -0.63945874        0.66843551        3.67720101
 C           -1.01962334       -1.32885037        2.29665628
 C            0.95904872       -2.73475640        2.11911208
 C           -0.31156626       -2.36921543        1.66501349
 C            2.82063736       -1.58889294        1.43868469
 C            2.03937412       -2.77510809        1.15732920
 C            2.66059106        0.81441243        1.08698440
 C            2.70086887       -0.49398336        0.57377376
 C            2.28839642        1.85838055        0.25146327
 C            0.63607713        2.52187378        1.93312116
 C            1.24058671        2.76394932        0.70323882
 C           -1.39936500        1.39765666        2.77941441
 C           -0.75777360        2.45329174        2.00196878
 C           -2.04162253       -0.66490377        1.61176222
 C           -2.27395119        0.68225883        1.86984150
 C           -2.56601056       -1.21647277        0.45167851
 C           -0.66718801       -2.76044444        0.36847060
 C           -1.87284566       -2.32321915       -0.17584039
 C            1.71070615       -3.02760853       -0.15700624
 C            0.31857202       -3.29077990       -0.46741037
 C            2.34816206       -0.74609742       -0.76349076
 C            2.14544613       -2.07042498       -1.15394747
 C            2.07545966        1.61096129       -1.15832266
 C            1.94189304        0.30232528       -1.60333161
 C            0.43581946        3.11960872       -0.45465196
 C            1.14755954        2.62314874       -1.62602613
 C           -1.55724914        2.63707618        0.79860182
 C           -2.55509884        1.57756383        0.76256454
 C           -0.95613743        3.02873249       -0.39264472
 C           -3.06188608       -0.33633379       -0.60002185
 C           -2.92555581        1.04956112       -0.46971728
 C           -2.03007620       -2.18888122       -1.62031050
 C           -2.81204737       -0.98984401       -1.87914762
 C            0.20728884       -3.13602687       -1.90634197
 C            1.36243637       -2.35597454       -2.33576450
 C           -0.97659814       -2.51285626       -2.46444953
 C            1.23251116        0.04996910       -2.78995830
 C            0.87027617       -1.25235894       -3.12393919
 C           -0.51961975       -1.53939535       -3.44135615
 C            0.44263281        2.39155854       -2.79320710
 C            0.55804759        1.09071419       -3.43252762
 C           -1.67592971        2.84920392       -1.57179441
 C           -2.72284306        1.83626482       -1.60170869
 C           -0.95516577        2.77218240       -2.82834418
 C           -2.54593776       -0.21995069       -3.00611355
 C           -1.34597251       -0.48116710       -3.79333713
 C           -0.71836815        0.79922110       -4.06751953
 C           -2.71164989        1.21751218       -2.91496883
 C           -1.65614941        1.84085422       -3.69404409
