58
Modified xyz file
 C            1.06099456       -0.17383043        4.25922902
 C            2.38949927       -0.48084492        3.77829086
 C            2.26057929       -1.61120374        2.85976825
 C            0.24103011       -1.32745782        3.95884522
 C            0.86134340       -1.98480758        2.82485162
 C           -1.10448694       -0.83061214        3.79954501
 C            0.36941299        0.97098808        3.68658276
 C           -1.02661678        0.62363312        3.67352057
 C            0.93062787        1.61402467        2.58487703
 C            3.09373063        0.56279867        3.06741330
 C            2.32210460        1.67861457        2.54170734
 C            2.91434799       -1.24087251        1.62116502
 C            3.71356404       -0.06908530        1.92286929
 C            2.19156200       -1.27137895        0.42756004
 C            0.18468155       -1.99859301        1.60420797
 C            0.88673081       -1.78461885        0.40935224
 C           -1.86406881       -1.27822907        2.65577754
 C           -1.21372060       -1.93061800        1.60357097
 C           -1.82340786        0.98405274        2.52075809
 C           -2.70022804       -0.14911244        2.32227843
 C            0.17061396        1.80392959        1.40597876
 C           -1.20956992        1.54405472        1.39638546
 C            0.78184703        2.26564479        0.22881700
 C            2.97918846        2.07525334        1.32488134
 C            3.82162591        0.95451882        0.91133479
 C            2.16925894        2.43088527        0.17983633
 C            2.65526993       -0.52855538       -0.66484982
 C            3.40263389        0.63031904       -0.43212179
 C            2.88028616        1.87315252       -0.94960661
 C            1.97057749       -0.60178049       -1.87789629
 C            0.20191432       -1.85791257       -0.80394102
 C            0.83594250       -1.41633109       -1.97414559
 C           -1.89841485       -2.00383460        0.39052034
 C           -1.17093168       -2.14358942       -0.79750385
 C           -3.37400758       -0.22117579        1.12856205
 C           -3.16732928       -1.41761202        0.34683793
 C           -1.89841732        1.47032380        0.17590143
 C           -3.14755769        0.84242684        0.17475943
 C            0.09298303        2.19193890       -0.99165629
 C           -1.20489152        1.65671166       -1.03107290
 C            2.20650385        1.80109850       -2.14332348
 C            2.09937735        0.49095174       -2.74107053
 C            0.84509981        2.28926496       -2.16615940
 C            1.15278124        0.66907615       -3.81706083
 C            0.30545886        1.78928074       -3.41213326
 C            0.18981801       -1.53227879       -3.20585017
 C            0.28595077       -0.43570173       -4.14986249
 C           -1.86320195       -2.27623101       -2.00216692
 C           -1.18728739       -1.97999586       -3.24878865
 C           -3.77335353       -1.11604163       -0.92882955
 C           -3.70034412        0.33767807       -1.06350406
 C           -3.18663118       -1.69406195       -2.11386818
 C           -1.80782487        1.32103333       -2.26690509
 C           -1.05339020        1.31753817       -3.43865835
 C           -1.04493089        0.12011446       -4.26505506
 C           -1.96294421       -0.94639245       -3.93290608
 C           -3.00608234        0.60994370       -2.29379682
 C           -3.07770110       -0.61649140       -3.07325233
