58
Modified xyz file
 C            1.53325093       -0.10932885        4.05590102
 C            0.71430651       -1.21427273        3.60232162
 C            1.43474503       -1.88556356        2.54129832
 C            2.63738846        0.02378469        3.11793406
 C            2.43521979       -0.94951228        2.06323792
 C            2.72592893        1.41549646        2.76021441
 C            0.73122081        1.09456453        3.95087208
 C            1.57202174        2.09681321        3.34120218
 C           -0.60532017       -0.70601290        3.28006503
 C           -0.51619813        0.74463992        3.29023517
 C           -1.27219585       -1.32205894        2.23026163
 C            0.67847422       -2.53456496        1.58408297
 C           -0.70862273       -2.48766924        1.70925100
 C            1.19661350       -2.59479350        0.30021777
 C            2.38441202       -0.55123556        0.72088460
 C            1.84420995       -1.45534807       -0.19867485
 C            2.75592224        1.77124668        1.35463769
 C            2.49032577        0.80697965        0.37499555
 C            1.00794662        2.91098996        2.28752881
 C            2.05035849        3.03191680        1.28637875
 C           -0.91902609        1.45648554        2.15786462
 C           -0.29872780        2.67771733        1.85079435
 C           -2.05498702       -0.53640683        1.38517466
 C           -1.71524746        0.80867844        1.20191326
 C           -2.82143845       -1.18222032        0.41753477
 C           -1.46153925       -3.23487896        0.81075166
 C           -2.64397500       -2.61539685        0.23931002
 C            0.59921206       -3.49582912       -0.56933850
 C           -0.75805324       -3.91924181       -0.26489158
 C            0.68605920       -3.26568392       -1.99339263
 C            1.62323169       -1.04815830       -1.51769651
 C            1.18573545       -1.98492152       -2.45506607
 C            2.05092262        1.24554941       -0.88218603
 C            1.55306280        0.32128278       -1.81609291
 C            1.67813427        3.49925396        0.04360424
 C            1.87872772        2.61939988       -1.09617429
 C           -0.70868248        3.38050255        0.72276898
 C            0.32717867        4.01305076       -0.07972671
 C           -2.01113535        1.43816637       -0.01141454
 C           -1.65374296        2.76728321       -0.19404857
 C           -2.94679072       -0.58357844       -0.90076329
 C           -2.38767012        0.67122959       -1.12246768
 C           -2.66185807       -2.90385532       -1.18505046
 C           -1.54948183       -3.79281716       -1.47493572
 C           -0.64281536       -3.46345905       -2.55859016
 C           -2.77496171       -1.63758671       -1.89046295
 C            0.29526779       -1.54651842       -3.50327140
 C           -0.93309671       -2.31523405       -3.39362688
 C           -1.99442003       -1.39153045       -3.01352869
 C            0.75638506        0.76400743       -2.89307814
 C           -1.88767490        0.98880946       -2.39575800
 C           -0.06866511       -0.15390688       -3.52277221
 C           -1.48880148       -0.05181726       -3.23149036
 C            0.95145190        3.06021099       -2.11386543
 C           -0.04493530        3.90297381       -1.47336273
 C           -1.31104206        3.19690655       -1.53277386
 C            0.24084869        2.04998840       -2.85076864
 C           -1.17745753        2.17547360       -2.54596734
