58
Modified xyz file
 C            1.27574846       -0.10826647        3.84722779
 C            2.55973089       -0.29860426        3.20105869
 C            2.52819448       -1.58578919        2.52781328
 C            0.45862418       -1.27955834        3.56500692
 C            1.17485456       -2.10896325        2.62435700
 C           -0.86209309       -0.82368072        3.20152241
 C            0.48993038        1.07184934        3.52493070
 C           -0.86141621        0.62979861        3.22884128
 C            1.05006624        2.08997049        2.76353699
 C            3.01650517        0.69293079        2.24523913
 C            2.38295860        1.92911402        2.19104898
 C            3.11382288       -1.41897817        1.20963734
 C            3.34233613        0.00285668        1.00264604
 C            2.59695445       -2.16939374        0.16682312
 C            0.53433533       -2.52343264        1.45900461
 C            1.32851069       -2.85600651        0.36114845
 C           -1.54492423       -1.45217676        2.16549950
 C           -0.83839622       -2.28373818        1.27933120
 C           -2.70714737       -0.81709565        1.73002833
 C           -1.62652063        1.29481807        2.27389821
 C           -2.76842958        0.63236668        1.83662576
 C            0.22242479        2.76350631        1.77735843
 C           -0.99930458        2.20471915        1.41077419
 C            2.41385908        2.66688060        0.94375238
 C            1.10314608        3.26665588        0.74254383
 C            3.01806191        0.58972840       -0.22394959
 C            2.75773130        1.95998906       -0.27655057
 C            2.56457343       -1.59431147       -1.16335903
 C            2.70163488       -0.21499961       -1.32523013
 C            0.72745105       -3.04128559       -0.94781691
 C            1.54294730       -2.31462269       -1.91056400
 C           -1.45822410       -2.73176585        0.11019496
 C           -0.65411724       -3.03279813       -1.06278748
 C           -3.33174229       -1.19879178        0.47748997
 C           -2.68629125       -2.10610267       -0.34969481
 C           -3.47760633        1.13595923        0.68078054
 C           -3.94341047       -0.00769596       -0.08750036
 C           -1.44930451        2.34716510        0.08986908
 C           -2.76370646        2.01370937       -0.21950374
 C            0.73548039        3.05810659       -0.64549932
 C            1.88909355        2.48222827       -1.31459493
 C           -0.53118958        2.56520385       -0.94671759
 C            2.23895897        0.37868409       -2.49946525
 C            1.67940968        1.71843239       -2.44866607
 C            0.94679844       -1.70610514       -3.00718356
 C            1.41909430       -0.39701607       -3.41809021
 C           -1.28202308       -2.40371117       -2.21516338
 C           -2.54843181       -1.83760318       -1.77747952
 C           -0.50236099       -1.72472410       -3.14811251
 C           -3.74045081        0.29708527       -1.49003857
 C           -3.08193376        1.59358227       -1.56899362
 C           -2.98680151       -0.63044467       -2.31508483
 C           -0.75323584        2.00893525       -2.21239441
 C            0.33715675        1.63942157       -2.99809984
 C            0.26077245        0.40935380       -3.76649834
 C           -0.92531045       -0.41916349       -3.63690562
 C           -2.00301160        1.48313746       -2.52901349
 C           -2.08378281        0.16063687       -3.13303143
