58
Modified xyz file
 C            1.64934281        0.10346176        3.97984344
 C            0.80167112       -1.07183346        3.88898376
 C            1.31633173       -1.91120742        2.82402744
 C            2.55079559        0.08968068        2.84024975
 C            2.35219033       -1.15337075        2.13303631
 C            2.36539201        1.32466698        2.11192958
 C            0.79865216        1.26964218        3.84159220
 C            1.40506158        2.13409283        2.84832099
 C           -0.57655765       -0.63032428        3.80597932
 C           -0.55911384        0.81101307        3.60312848
 C           -1.45736651       -1.39769503        3.06284065
 C            0.41707771       -2.65513416        2.06071281
 C           -0.94832889       -2.56315605        2.35238385
 C            0.83033173       -3.06070305        0.79088802
 C            2.35316780       -1.15512270        0.74361694
 C            1.88235833       -2.30477443        0.12975707
 C            2.27881383        1.28922673        0.72121430
 C            2.30874418        0.05793349        0.03810908
 C            1.80110212        2.42777348        0.06863261
 C            0.56213596        2.95556872        2.11703764
 C            0.93332647        3.27872477        0.75354207
 C           -1.26905860        1.37888520        2.54284560
 C           -0.85850028        2.62923159        2.08540196
 C           -2.36276005       -0.72544702        2.15118495
 C           -2.04663378        0.55802480        1.71405019
 C           -1.93595672       -2.88257257        1.33540428
 C           -2.80046061       -1.71804215        1.18944033
 C           -0.13876077       -3.45327233       -0.22275061
 C           -1.49482217       -3.26795572        0.00910796
 C            1.61119380       -2.30018737       -1.28997056
 C            0.41542516       -3.10119712       -1.52003283
 C            2.17745703        0.04534860       -1.35883991
 C            1.80540301       -1.13572238       -2.02484916
 C            1.81661116        2.46487107       -1.32168779
 C            2.19632431        1.26351990       -2.03885821
 C            0.68149369        3.05210354       -2.02844367
 C           -0.28351122        3.70891953        0.09462585
 C           -1.39312518        3.13794504        0.83805203
 C           -0.45590495        3.36247683       -1.29920035
 C           -2.27017078        0.90801091        0.37199211
 C           -2.07934070        2.21785249       -0.04245334
 C           -1.60243158        2.46343301       -1.39224434
 C           -2.82013270       -1.36571186       -0.21474959
 C           -2.28282208       -2.49963902       -0.94246878
 C           -2.44679888       -0.08051900       -0.59852024
 C           -0.44403725       -2.73930442       -2.54953656
 C           -1.78626084       -2.27920618       -2.21825887
 C            1.26522018       -1.09009440       -3.31173278
 C            0.06369097       -1.85672293       -3.58637636
 C            1.61200523        1.37072329       -3.36034404
 C            0.50651885        2.30693160       -3.25618978
 C            1.09658219        0.17667382       -3.98940310
 C           -1.56339927        1.41005110       -2.30751268
 C           -2.03338333        0.14510616       -1.91813651
 C           -1.91655675       -0.94753390       -2.78196644
 C           -0.98294299       -0.89355409       -3.88561248
 C           -0.70915350        1.53319570       -3.40868170
 C           -0.33612912        0.36491491       -4.17911089
