58
Modified xyz file
 C            1.22186718        0.02180014        4.14162474
 C            2.52522840       -0.29304476        3.59454086
 C            2.44848259       -1.63321449        3.03251949
 C            0.39612041       -1.17044474        4.01682063
 C            1.05265547       -2.03785218        3.06416378
 C           -0.94971087       -0.73244044        3.73537927
 C            0.45922452        1.11842591        3.56907658
 C           -0.92471000        0.72124884        3.68386992
 C            0.88784266        1.73213120        2.38664694
 C            3.07054183        0.57741265        2.57517435
 C            2.21366199        1.58440949        1.96894413
 C            3.14018912       -1.62391617        1.75506946
 C            3.58131645       -0.26311391        1.50415900
 C            2.58758832       -2.33842034        0.70274786
 C            0.42514189       -2.37326455        1.86198250
 C            1.23116658       -2.85191254        0.83650781
 C           -1.58969413       -1.18391860        2.51447495
 C           -0.85951040       -1.88740957        1.55858644
 C           -1.82821054        1.12081344        2.63489973
 C           -2.41782421       -0.08290256        2.07356904
 C           -0.05513220        2.25107582        1.48252128
 C           -1.43033321        2.10341908        1.74294366
 C            0.37466531        2.60080023        0.19232998
 C            2.50873330        1.59036801        0.54843807
 C            3.22875272        0.36847728        0.24094212
 C            1.52249922        2.00671827       -0.32738223
 C            2.68314446       -1.79721216       -0.64096593
 C            2.78106855       -0.41677178       -0.81935155
 C            0.68994050       -2.98089343       -0.50011661
 C            1.72232955       -2.54225775       -1.42997086
 C           -1.31692536       -1.87763774        0.23143983
 C           -0.62823794       -2.61544045       -0.74408896
 C           -2.81492450       -0.03376200        0.74363613
 C           -2.40141947       -1.04990257       -0.12197557
 C           -2.33554139        2.36139045        0.72300177
 C           -3.09161772        1.22847196        0.21336567
 C           -0.50240580        3.22875777       -0.68623863
 C           -1.91691412        3.15990755       -0.40515352
 C           -0.33129016        3.01414374       -2.11423254
 C            1.48815590        1.46016732       -1.61005176
 C            2.02996834        0.18888782       -1.83175298
 C            0.64202207        2.03047221       -2.55589795
 C            1.32153108       -2.01794135       -2.64673429
 C            1.54543883       -0.59995462       -2.87896498
 C           -1.03467341       -2.57357899       -2.07532542
 C           -0.02716453       -2.31583578       -3.09018512
 C           -2.85122349       -1.00501087       -1.43879885
 C           -2.21860214       -1.83100847       -2.44101264
 C           -3.24236794        1.39842173       -1.22227643
 C           -2.58704270        2.64454384       -1.58824736
 C           -1.62401667        2.64449521       -2.67219122
 C           -3.12032356        0.28671856       -2.04690937
 C           -0.00838043        1.18136439       -3.53677310
 C            0.46197000       -0.11236335       -3.72054102
 C           -0.48544118       -1.20096112       -3.89718861
 C           -1.88249169       -0.98001572       -3.57577227
 C           -1.44231438        1.43066939       -3.44759774
 C           -2.32280311        0.36689072       -3.26367852
