58
Modified xyz file
 C            1.48181165       -0.07468064        4.08296194
 C            0.68645075       -1.28238604        3.97561971
 C            1.32999362       -2.16496031        3.01423592
 C            2.57152788       -0.18299684        3.13180874
 C            2.38431148       -1.40344425        2.36533572
 C            2.63370881        1.06787162        2.40589417
 C            0.64956131        1.03912614        3.65935006
 C            1.36464117        1.74871158        2.62046419
 C           -0.68924037       -0.88332727        3.73717359
 C           -0.66726417        0.52115273        3.35391538
 C           -1.50555757       -1.75380395        3.02842578
 C            0.52727312       -2.99134786        2.24389428
 C           -0.91041756       -2.95528257        2.46246925
 C            0.74041895       -3.03671100        0.80718667
 C            2.44154106       -1.32778336        0.97128389
 C            1.54399838       -2.07119092        0.19522827
 C            3.12664116        1.03029243        1.11223559
 C            3.10727640       -0.24447917        0.40234559
 C            2.64736271        2.02324014        0.17195966
 C            0.66666485        2.20700865        1.50615777
 C            1.40973846        2.62049203        0.40221181
 C           -1.28996834        0.90829393        2.17011704
 C           -0.68227286        1.85839422        1.33066282
 C           -2.41575381       -1.21215382        2.03315954
 C           -2.35231447        0.13743259        1.69486900
 C           -1.55920274       -3.22420854        1.19140849
 C           -0.52492974       -3.41425755        0.19625705
 C           -2.55223284       -2.19083924        0.96500675
 C           -0.78510690       -3.00086037       -1.09769181
 C            1.32707591       -1.74659799       -1.15275098
 C            0.27124097       -2.34505288       -1.84090264
 C            2.93218616        0.04832692       -1.00889316
 C            2.94144369        1.49824962       -1.14713730
 C            2.03424918       -0.70259326       -1.75909673
 C            2.31837036        2.07698370       -2.24294969
 C            0.75140479        3.22089190       -0.66154185
 C            1.31703402        3.10140451       -1.99729968
 C           -1.36553578        2.31169327        0.19547851
 C           -0.68661865        3.06101048       -0.76823201
 C           -3.02418609        0.54354441        0.55132918
 C           -2.59720380        1.74904585       -0.12864160
 C           -2.76513216       -1.72512773       -0.33010495
 C           -2.01584407       -2.27034166       -1.38063817
 C           -3.31732900       -0.45384631       -0.46676226
 C           -0.36647764       -1.63319309       -2.93247983
 C           -1.77974183       -1.50457225       -2.60069870
 C            1.61068479       -0.20082930       -2.99146720
 C            1.81168351        1.20749196       -3.28940508
 C            0.30755414       -0.57181638       -3.51526433
 C            0.22535477        2.90245734       -2.93421962
 C           -1.01467109        2.89887230       -2.18053845
 C            0.54505512        1.75059175       -3.75532714
 C           -0.40825112        0.65580117       -3.82856329
 C           -2.97076749        1.60682399       -1.52578392
 C           -3.30421744        0.21058846       -1.75602370
 C           -2.43086642       -0.29229274       -2.79636585
 C           -2.02315163        2.01538367       -2.54234592
 C           -1.70200362        0.83979993       -3.34732050
