58
Modified xyz file
 C            1.04613147        0.16179716        4.18418232
 C            2.28360472        0.01264855        3.44749886
 C            2.34182015       -1.36765128        3.01585007
 C            0.21814349       -1.00195720        3.88086115
 C            0.98035067       -1.86752799        3.01417928
 C           -1.06011767       -0.52047628        3.41837944
 C            0.24387216        1.33989192        3.93441180
 C           -1.12315321        0.89114386        3.75407125
 C            0.55852871        2.16773304        2.78455380
 C            2.50152598        0.83127057        2.26528348
 C            1.52752957        1.74427504        1.86857038
 C            3.06032819       -1.39713864        1.76125236
 C            3.11853535       -0.02255534        1.26670770
 C            2.70671908       -2.38836604        0.86264155
 C            0.44010936       -2.28919558        1.79971396
 C            1.32634111       -2.86541149        0.89530985
 C           -1.54942270       -0.92908278        2.17927217
 C           -0.75701503       -1.71978212        1.32424377
 C           -2.59901372       -0.18970193        1.64922041
 C           -1.75187400        1.79044537        2.80328685
 C           -0.71115457        2.67792035        2.29619370
 C           -2.65868043        1.24361456        1.90737222
 C           -0.78057625        3.13109955        0.98632561
 C            1.36448248        2.03154442        0.51056211
 C            0.37124212        2.93335989        0.12537040
 C            2.87749731        0.22083194       -0.08617207
 C            2.04830342        1.28512925       -0.46082678
 C            3.05194804       -2.17690729       -0.52473159
 C            3.12740626       -0.80937086       -0.99651638
 C            0.90686630       -3.10426537       -0.46583070
 C            2.05255136       -2.85228083       -1.32467991
 C           -1.14960124       -1.91596277       -0.02006583
 C           -0.33983005       -2.66736865       -0.89151522
 C           -3.01316897       -0.40849181        0.28538078
 C           -2.34105063       -1.33663283       -0.49797830
 C           -2.88056672        1.90229412        0.63330905
 C           -1.96520083        2.84992601        0.18854198
 C           -3.35970400        0.88633506       -0.28573218
 C           -0.10633782        2.94900023       -1.24548939
 C           -1.55956332        2.85589650       -1.20972299
 C            1.77577125        1.49284739       -1.81463201
 C            0.60913357        2.26166569       -2.21317515
 C            2.51866293       -0.78131105       -2.31701734
 C            1.84693672       -2.06074625       -2.52391463
 C            1.91734164        0.39163135       -2.75149654
 C           -0.52195322       -2.56316580       -2.26842383
 C            0.57853391       -2.07552704       -3.08468667
 C           -2.63676459       -1.34510938       -1.86096852
 C           -1.73481972       -1.98310989       -2.78767129
 C           -3.20110039        1.07285202       -1.65157500
 C           -2.22546154        2.04642682       -2.12571971
 C           -3.07973851       -0.10922428       -2.48405176
 C           -0.09470602        1.50942726       -3.24117141
 C            0.70411262        0.32993453       -3.55449171
 C            0.09138250       -0.89953678       -3.78114887
 C           -1.35760121       -0.99638338       -3.79211965
 C           -1.48562896        1.43890630       -3.22139830
 C           -2.15190710        0.19439217       -3.55962255
