58
Modified xyz file
 C            1.53948873       -0.13299652        4.28173671
 C            0.67890549       -1.27747868        4.03530233
 C            1.42818445       -2.21264034        3.23151143
 C            2.65469960       -0.21957505        3.35368434
 C            2.65028179       -1.54757379        2.79193861
 C            2.56742853        0.90730861        2.44939506
 C            0.78212662        1.06229753        3.95428686
 C            1.49050310        1.77263354        2.90692777
 C           -0.58254453       -0.77900087        3.52154944
 C           -0.58471603        0.66469655        3.69795821
 C           -1.12941155       -1.31595397        2.35305539
 C            0.80255595       -2.76366933        2.04665999
 C           -0.47957245       -2.36031497        1.66911326
 C            2.71423872       -1.69208151        1.34893710
 C            1.83369864       -2.79850834        1.03189720
 C            2.73386999        0.72728637        1.07663250
 C            2.69539273       -0.56362107        0.52050119
 C            2.41879859        1.81654268        0.27619396
 C            0.75646540        2.47053099        1.94887235
 C            1.37443408        2.72499309        0.72806991
 C           -1.32063087        1.43098042        2.80924051
 C           -0.63956756        2.44580193        2.01077512
 C           -2.15606414       -0.60802374        1.72102976
 C           -2.26389175        0.76379348        1.93071381
 C           -2.77885389       -1.15446547        0.60686595
 C           -0.91776488       -2.71608646        0.39057358
 C           -2.18112824       -2.31245646       -0.02524180
 C            1.43769981       -2.95486177       -0.28138121
 C            0.02197469       -3.12761156       -0.55997688
 C            2.34655078       -0.74071038       -0.82809998
 C            1.92342053       -2.00034968       -1.25838767
 C            2.26579808        1.64370849       -1.15195801
 C            2.20030293        0.36026386       -1.67869195
 C            0.58216079        3.09846040       -0.43318774
 C            1.32520755        2.65723917       -1.60534227
 C           -1.42777477        2.63835038        0.80015673
 C           -2.48519895        1.63732985        0.79153487
 C           -0.80580459        2.97103032       -0.39756268
 C           -3.24751443       -0.26639764       -0.44873749
 C           -2.88768790        1.08164196       -0.41965837
 C           -2.48836581       -2.25118199       -1.44549669
 C           -3.19090788       -1.00364122       -1.69798653
 C           -0.16327472       -2.79204145       -1.96536786
 C            1.04584907       -2.10996692       -2.40959496
 C           -1.40722225       -2.36027173       -2.40629909
 C            1.66928724        0.18554822       -2.95808486
 C            0.95488960       -1.03689508       -3.28097838
 C            0.65709297        2.47042079       -2.80633212
 C            0.95645476        1.28480815       -3.58995120
 C           -1.50408385        2.75147459       -1.58173502
 C           -2.55386614        1.74308302       -1.60404507
 C           -0.77920107        2.67231491       -2.83845500
 C           -2.59104190       -0.37337537       -2.85659389
 C           -1.49975606       -1.22719815       -3.31435837
 C           -0.33736631       -0.66173684       -3.83316394
 C           -0.29510620        0.76275528       -4.11737038
 C           -2.43976633        1.00738527       -2.85725665
 C           -1.36967615        1.60800648       -3.63381789
