58
Modified xyz file
 C            0.88341141        0.07017767        4.08594670
 C            2.16045666       -0.23300269        3.48319270
 C            2.12668049       -1.62753787        3.08118162
 C            0.04511821       -1.11683898        3.96728651
 C            0.73621801       -2.03877095        3.09257564
 C           -1.28238176       -0.68221657        3.60163481
 C            0.11877811        1.18437653        3.56746752
 C           -1.27176699        0.77017761        3.59415838
 C            0.57810367        1.90875251        2.46381955
 C            2.58355037        0.53370487        2.33024391
 C            1.80854023        1.59241961        1.85907976
 C            2.85755591       -1.74873178        1.83533379
 C            3.16005451       -0.39772828        1.37063483
 C            2.40174274       -2.67647857        0.91450799
 C            0.15624578       -2.44494248        1.88798862
 C            0.99133602       -3.05196724        0.95438144
 C           -1.82780116       -1.10942142        2.32887391
 C           -1.06224993       -1.89070159        1.45981042
 C           -2.13666389        1.20731328        2.51607035
 C           -2.56267825        0.02016088        1.78867478
 C           -0.34719283        2.70706017        1.78726765
 C           -1.75267186        2.32033879        1.78528452
 C           -0.03514254        3.25270112        0.47697301
 C            2.11183788        2.08316354        0.59121209
 C            1.17437962        2.93476169       -0.11800511
 C            3.09524498       -0.09460476        0.00582780
 C            2.73551954        1.19530620       -0.37950481
 C            2.75930943       -2.47976838       -0.47215667
 C            3.01501720       -1.12725972       -0.93079776
 C            0.53887482       -3.22481248       -0.41036409
 C            1.68611989       -3.02373426       -1.27890232
 C           -1.40523809       -1.90138883        0.09966088
 C           -0.68037964       -2.69031351       -0.80599063
 C           -2.72911706        0.09818274        0.41171072
 C           -2.38812153       -1.01035734       -0.36183294
 C           -2.23342331        2.44993206        0.42427101
 C           -1.25624865        3.23325393       -0.31327377
 C           -2.82851940        1.35435914       -0.19587285
 C           -1.18498817        3.07680326       -1.69234401
 C            1.21816245        2.57173251       -1.52732359
 C            2.07375802        1.40470261       -1.65808287
 C            0.07065681        2.65806219       -2.30223583
 C            2.25212517       -0.93119801       -2.15855704
 C            1.52226129       -2.16147569       -2.43356675
 C            1.64784933        0.30323292       -2.39732024
 C           -0.87171098       -2.51475254       -2.17474776
 C            0.25492859       -2.06576294       -2.98075934
 C           -2.81132429       -1.05017491       -1.68562735
 C           -2.04265797       -1.80783294       -2.64493101
 C           -3.05866574        1.42758286       -1.56724743
 C           -2.25535536        2.34912521       -2.35521753
 C           -3.18243293        0.19693752       -2.32779283
 C           -0.22689694        1.58556515       -3.23606967
 C            0.45895827        0.37170273       -3.13554043
 C           -0.15088952       -0.80766514       -3.56982081
 C           -1.59819839       -0.87990612       -3.67340566
 C           -1.66600886        1.59428232       -3.44597304
 C           -2.37406941        0.33347439       -3.53180679
