58
Modified xyz file
 C            1.61600363       -0.13869899        4.33226356
 C            0.73365180       -1.29019584        4.36812586
 C            1.24584904       -2.26103067        3.42260029
 C            2.60664215       -0.36309742        3.29114053
 C            2.34810046       -1.65308261        2.69312326
 C            2.60748702        0.79715072        2.42955379
 C            0.82388708        1.00727984        3.92910622
 C            1.56185512        1.70244893        2.89212231
 C           -0.57168336       -0.87230810        3.88187197
 C           -0.50948876        0.54595599        3.59881525
 C            0.11664047       -2.74690698        2.65480715
 C           -0.95295163       -1.76912655        2.80655285
 C            0.37747248       -3.21945513        1.38202595
 C            2.35625036       -1.77266145        1.30435979
 C            1.63096728       -2.82953550        0.75285308
 C            2.76365675        0.62538899        1.05667529
 C            2.67324601       -0.66286766        0.50145086
 C            2.48807182        1.73507969        0.25967644
 C            0.83890261        2.39522270        1.92512064
 C            1.50826788        2.69173848        0.74240122
 C           -1.06346053        1.01444830        2.41596216
 C           -0.54373218        2.18662102        1.86998850
 C           -1.54768427       -1.23530561        1.66038694
 C           -1.77315251        0.14154762        1.58062729
 C           -0.63801164       -3.04536516        0.36796695
 C           -1.54340313       -1.98973551        0.48741326
 C            1.43076453       -2.90665609       -0.68479404
 C            0.03241022       -3.25507160       -0.89994605
 C            2.68370794       -0.81094715       -0.88857233
 C            2.03524240       -1.96084799       -1.49965210
 C            2.30210814        1.58790660       -1.17249725
 C            2.43505893        0.33846545       -1.74434031
 C            0.75829837        3.18486419       -0.39743767
 C            1.19627239        2.44216778       -1.57296026
 C           -1.28604277        2.80872371        0.87594282
 C           -0.59237535        3.44600428       -0.23229774
 C           -2.38739216        0.67103349        0.44321881
 C           -2.38740474        2.06128017        0.30236984
 C           -2.12008192       -1.46871300       -0.67259415
 C           -2.59575453       -0.14911110       -0.67697300
 C           -0.61271797       -2.82379317       -2.04544630
 C           -1.87404579       -2.13134171       -1.87975705
 C            1.35126572       -1.50947191       -2.70250720
 C            1.50979681       -0.06486758       -2.78813934
 C            0.13187318       -2.07921245       -3.04925089
 C            0.24843918        1.98901863       -2.49402333
 C            0.40928343        0.73477084       -3.10720769
 C           -1.45975554        3.35824041       -1.39288114
 C           -2.67297411        2.67017655       -0.97895855
 C           -0.97085426        2.66829185       -2.57148228
 C           -3.14473453        0.39001144       -1.84723068
 C           -3.08073933        1.81914710       -2.07220381
 C           -2.12898163        2.02453256       -3.15494011
 C           -2.13147683       -1.47369659       -3.14155470
 C           -0.83501492       -1.26970174       -3.77347935
 C           -0.62994018        0.16506122       -3.84697552
 C           -2.81372236       -0.20151927       -3.12776428
 C           -1.95389630        0.75174601       -3.81265574
