58
Modified xyz file
 C            1.44575954        0.03095623        4.21120042
 C            0.65505069       -1.17223558        4.03081074
 C            1.45237949       -2.10519405        3.27286453
 C            2.60133068       -0.06704232        3.33282613
 C            2.61370035       -1.39133280        2.75826405
 C            2.55894959        1.06194503        2.43179070
 C            0.64588303        1.15978434        3.76398178
 C            1.42454063        1.89135068        2.80159797
 C           -0.63471008       -0.78312822        3.49312866
 C           -0.63916953        0.66690313        3.33823273
 C           -1.24110573       -1.55655698        2.50170133
 C            0.82904102       -2.76589477        2.14921313
 C           -0.54293903       -2.63583310        1.92611111
 C            2.60366378       -1.52164570        1.30820607
 C            1.72076980       -2.62850041        1.01015612
 C            2.79769578        0.87780950        1.06973938
 C            2.54938606       -0.38290995        0.50290188
 C            2.60865552        2.00559249        0.28254187
 C            0.77650950        2.54242348        1.76324690
 C            1.62511689        2.96710343        0.75393962
 C           -1.23154081        1.21158526        2.19976932
 C           -0.52903805        2.13987710        1.40486617
 C           -2.28752534       -0.95684702        1.80296450
 C           -2.27612816        0.48879921        1.64012073
 C           -2.79102015       -1.54579282        0.57748469
 C           -1.01455878       -3.21122868        0.74695551
 C           -2.23670645       -2.72943923        0.12831774
 C            1.15408426       -2.72284991       -0.25038269
 C           -0.05338620       -3.41188495       -0.32306461
 C            1.93855734       -0.48199443       -0.75891986
 C            1.41495484       -1.71233224       -1.18451404
 C            2.37864247        1.85190781       -1.13633829
 C            1.88656556        0.63681125       -1.60436873
 C            1.06209880        3.62220753       -0.39512657
 C            1.74950553        3.08846349       -1.55912966
 C           -1.04347934        2.50965512        0.14262876
 C           -0.35115680        3.45157724       -0.62766066
 C           -2.73151329        0.79250565        0.30273965
 C           -3.05428368       -0.46331018       -0.36266112
 C           -2.11782607        1.80081374       -0.42276053
 C           -2.76869387       -0.61332749       -1.72243163
 C           -2.12447554       -2.95723757       -1.30158919
 C           -0.78160355       -3.45343754       -1.57030853
 C           -2.37441636       -1.85853928       -2.21775659
 C            0.87395689       -1.81855996       -2.46447550
 C           -0.24897117       -2.71293273       -2.69294916
 C           -1.33447954       -1.91491498       -3.22964121
 C            1.13257137        0.60065441       -2.78833218
 C            0.61714390       -0.61466657       -3.23044112
 C           -0.76791476       -0.66844150       -3.69300078
 C            0.78038249        3.03746531       -2.62626406
 C           -0.49868308        3.46135250       -2.06944240
 C            0.54861739        1.77050127       -3.28500477
 C           -2.32625826        1.80166233       -1.80142553
 C           -2.51686012        0.53084757       -2.48363668
 C           -1.54312541        0.47242585       -3.56957431
 C           -1.52155609        2.63523990       -2.66620326
 C           -0.86238796        1.74979008       -3.61089856
