58
Modified xyz file
 C            1.15389094       -0.14934327        4.09428056
 C            2.36302979       -0.36479249        3.32348922
 C            2.22440720       -1.64541639        2.64688870
 C            0.30626571       -1.31630579        3.90426690
 C            0.85302766       -2.07437148        2.79255477
 C           -1.05986487       -0.85263427        3.81710246
 C            0.34347793        1.02743627        3.83102333
 C           -1.04257530        0.60328762        3.81937377
 C            0.76827600        1.96715907        2.89848182
 C            2.75694563        0.61725825        2.32710306
 C            2.02709719        1.78637063        2.18293353
 C            2.74244552       -1.49048155        1.31115108
 C            3.16372971       -0.10892469        1.13899386
 C            2.08048253       -2.09247821        0.25310675
 C            0.08109838       -2.27030292        1.64350527
 C            0.71113857       -2.39584997        0.38873616
 C           -1.85449729       -1.26937433        2.68164893
 C           -1.31043954       -2.11691189        1.72095051
 C           -1.91564604        1.05534290        2.74701794
 C           -2.60590402       -0.11421831        2.22741891
 C           -0.19107759        2.55444260        1.97199755
 C           -1.47802116        2.02926562        1.85499071
 C            1.86975761        2.35801300        0.85857745
 C            0.54065099        2.94426110        0.77675548
 C            3.02122916        0.46365962       -0.12790338
 C            2.39305954        1.71262390       -0.26186573
 C            2.58158503       -1.77632794       -1.00004804
 C            3.04741294       -0.41562207       -1.21272542
 C            1.86845410       -2.20256927       -2.17682435
 C           -0.05951744       -2.70411120       -0.74603972
 C            0.49189366       -2.60864871       -2.02486525
 C           -2.07927310       -2.33213502        0.58793811
 C           -1.44312533       -2.77500633       -0.63316641
 C           -3.06393701       -0.10903591        0.91232075
 C           -3.06719805       -1.32450661        0.22820107
 C           -2.15968636        2.16989419        0.65187970
 C           -3.02266806        1.08924591        0.19451456
 C           -0.10450898        2.97051438       -0.45483860
 C           -1.47710658        2.72149716       -0.50927484
 C            1.94961332        2.14368889       -1.51261918
 C            0.67164207        2.83581556       -1.60375273
 C            2.59260962        0.00986543       -2.52314148
 C            1.91563091       -1.11872050       -3.14556118
 C            2.07537358        1.28494315       -2.67729067
 C           -0.26908293       -1.97144173       -3.09074269
 C            0.57555046       -0.94595587       -3.68342488
 C           -2.26877411       -2.31512263       -1.73958414
 C           -3.21896081       -1.34823966       -1.21413001
 C           -1.62144064       -1.72516420       -2.89681052
 C           -2.99680319        1.08636740       -1.26379705
 C           -2.07684999        2.12662799       -1.69777765
 C           -3.06169562       -0.11537213       -1.95813101
 C           -2.13721708       -0.37184236       -3.05249794
 C            0.04540615        2.46077615       -2.85850404
 C            0.89898377        1.48208919       -3.51063828
 C            0.07643390        0.33822955       -3.87131086
 C           -1.30694378        1.93936249       -2.83830131
 C           -1.29778470        0.64318966       -3.50163553
