58
Modified xyz file
 C            1.31818707       -0.16622543        4.74744332
 C            0.41580653       -1.28477725        4.56504032
 C            0.97581259       -2.14470524        3.53420293
 C            2.44904316       -0.37008290        3.86021068
 C            2.13602520       -1.48698732        2.97983489
 C            2.73379568        0.91302766        3.25895521
 C            0.63351313        1.03276956        4.28919930
 C            1.57734543        1.77278327        3.48543181
 C           -0.83157349       -0.75801676        4.04121545
 C           -0.62136601        0.62559241        3.68239273
 C           -0.09869904       -2.47416529        2.63259501
 C           -1.24623939       -1.64940192        2.98708399
 C            0.17488015       -2.61588566        1.27583571
 C            2.21488930       -1.30574021        1.59453004
 C            1.29471248       -1.95514314        0.74033830
 C            3.00419502        0.94739644        1.83826703
 C            2.97991772       -0.23741935        1.10795585
 C            1.15058938        2.25483358        2.18618680
 C            2.27410253        2.07661705        1.29501739
 C           -0.92348674        1.00965850        2.37265843
 C           -0.11163462        1.93572530        1.70078823
 C           -1.97418096       -1.12955227        1.92667628
 C           -1.83708767        0.23819817        1.63145382
 C           -0.94780927       -2.75850384        0.47324613
 C           -2.12428180       -1.99920966        0.86220081
 C           -0.82567175       -2.64223657       -0.96206342
 C            1.39320410       -1.75991829       -0.64984879
 C            0.29541408       -2.01942281       -1.49170182
 C            3.13023059       -0.09742631       -0.26192101
 C            2.48444855       -1.05115870       -1.13673995
 C            2.03745585        2.06543941       -0.07390894
 C            2.84169041        1.21245102       -0.81942489
 C           -0.34572282        2.15351472        0.35024929
 C            0.73539408        2.30825910       -0.53136078
 C           -2.25113621        0.70959239        0.37360477
 C           -1.59043775        1.82181358       -0.15918373
 C           -2.74872864       -1.52052580       -0.34258326
 C           -2.13865975       -2.25157277       -1.43803207
 C           -2.94976464       -0.15489731       -0.48442686
 C           -2.25074414       -1.71528591       -2.70639767
 C            0.20491675       -1.44301415       -2.77179453
 C           -1.02967978       -1.39272588       -3.42771220
 C            2.40172386       -0.41184482       -2.43384150
 C            2.54923480        1.02245150       -2.21903468
 C            1.20960074       -0.59719491       -3.22962734
 C            0.48637228        2.31970694       -1.91142886
 C            1.37075485        1.65968878       -2.76898373
 C            0.84330639        0.71628086       -3.73699902
 C           -1.91127271        2.28248357       -1.42677991
 C           -0.81927331        2.53376475       -2.35288944
 C           -3.35751177        0.29659820       -1.73752135
 C           -3.15424377       -0.58987019       -2.87426434
 C           -2.97709432        1.62927595       -2.15296767
 C           -1.32007608       -0.24804313       -4.28168961
 C           -0.44381307        0.90804270       -4.21255139
 C           -1.21409580        2.00393962       -3.64957362
 C           -2.67190531        0.19885697       -3.99138638
 C           -2.60037212        1.58219175       -3.55597574
