58
Modified xyz file
 C            1.18875832        0.00574474        4.17759962
 C            2.45846215       -0.31791930        3.56104237
 C            2.30540987       -1.59856868        2.88601467
 C            0.30674292       -1.13660864        3.99292487
 C            0.91056504       -1.98557411        2.98643568
 C           -1.02509059       -0.62549231        3.75877526
 C            0.46061076        1.18200619        3.73165719
 C           -0.94654055        0.82609804        3.77377936
 C            0.93577080        1.94988022        2.66293124
 C            3.02158796        0.61627924        2.60917154
 C            2.21063179        1.72591305        2.13716351
 C            2.89192341       -1.47936078        1.56177035
 C            3.44053414       -0.14186277        1.44304796
 C            2.19668624       -1.99090462        0.47199041
 C            0.22507379       -2.27523111        1.80790164
 C            0.97732923       -2.63650286        0.69178483
 C           -1.71120626       -1.00363791        2.53992497
 C           -1.10091573       -1.85210537        1.62023383
 C           -1.82035372        1.32433708        2.72929421
 C           -2.38900024        0.17565159        2.03914812
 C            0.03380276        2.70660943        1.91622785
 C           -1.39132058        2.40116332        1.97211857
 C            0.35577613        3.03043554        0.53424900
 C            2.41921494        1.83647542        0.69921787
 C            3.10159940        0.63303765        0.26002603
 C            1.40243436        2.35981706       -0.09363073
 C            2.42668594       -1.41776884       -0.77726023
 C            2.60582099       -0.03337311       -0.85323950
 C            1.97949967       -2.10570745       -1.89875214
 C            0.30749971       -3.17301132       -0.40067346
 C            0.94481885       -3.10304320       -1.70407935
 C           -1.65572987       -1.93009476        0.34128418
 C           -1.08760037       -2.81590243       -0.57285222
 C           -2.63787584        0.26064926        0.67149938
 C           -2.47345900       -0.88668756       -0.11275952
 C           -1.92115187        2.55698487        0.63111905
 C           -0.90136806        3.21707058       -0.16683915
 C           -2.65547841        1.51997131        0.05974867
 C           -0.93325909        3.04701018       -1.54210496
 C            1.22326620        1.87218362       -1.39330134
 C            1.87375411        0.69626109       -1.78982008
 C            0.20407588        2.40758936       -2.18491569
 C            1.65101808       -1.35541737       -3.09705211
 C            1.54143323        0.08744782       -2.99709875
 C           -0.08891315       -2.88212030       -2.69981380
 C           -1.34266804       -2.66409578       -1.99735026
 C            0.39080329       -1.86527093       -3.61649177
 C           -2.90604334       -0.87053624       -1.43545219
 C           -2.20349372       -1.66298288       -2.42750043
 C           -2.96155597        1.61597812       -1.29502560
 C           -2.13584107        2.47791465       -2.12553227
 C           -3.22669004        0.40407805       -2.04674340
 C           -0.29552170        1.66493224       -3.33227855
 C            0.32964052        0.47916572       -3.69212607
 C           -0.46277326       -0.72734302       -3.90358727
 C           -1.79435963       -0.76071938       -3.49801075
 C           -1.74773208        1.72722727       -3.30532517
 C           -2.50528832        0.48993031       -3.30846548
