58
Modified xyz file
 C            1.56805477       -0.19163069        4.14588685
 C            0.71404611       -1.36635906        4.16018682
 C            1.17702713       -2.25961318        3.11675759
 C            2.51511174       -0.33763760        3.05348344
 C            2.30779044       -1.63913890        2.45023814
 C            2.40767890        0.83464702        2.20173511
 C            0.73465669        0.95448924        3.84117229
 C            1.35423524        1.67639280        2.74353185
 C           -0.63120071       -0.94852015        3.80337796
 C           -0.62974475        0.49352508        3.65737130
 C            0.03161825       -2.62253859        2.30057705
 C           -1.06856794       -1.74887993        2.67225383
 C            0.24729537       -2.84826722        0.94958978
 C            2.35932403       -1.73552031        1.06653888
 C            1.54082409       -2.68084253        0.45370013
 C            2.47580275        0.65952344        0.82004332
 C            2.74679134       -0.61763249        0.32323405
 C            1.86600414        1.60667887       -0.01475233
 C            0.52043384        2.32413157        1.84474030
 C            0.99433183        2.54821721        0.55643568
 C           -1.34989619        1.04636995        2.60746090
 C           -0.85814188        2.21476719        2.03110110
 C           -1.79477691       -1.12448896        1.65876920
 C           -2.15620587        0.21440950        1.82641190
 C           -0.82037773       -2.66701372        0.07681181
 C           -1.76873562       -1.67305214        0.36870418
 C           -0.67775244       -3.15111438       -1.21927078
 C            1.78601671       -2.98643375       -0.87924528
 C            0.66690882       -3.38630529       -1.71548701
 C            2.92590297       -0.77448676       -1.04457472
 C            2.60049813       -2.06021594       -1.64475759
 C            1.93348342        1.44608913       -1.40876948
 C            2.44236816        0.26355103       -1.93596826
 C            1.09612586        2.18848318       -2.23425566
 C            0.27479449        3.42618610       -0.24726919
 C            0.34237577        3.29177055       -1.68364498
 C           -1.70111928        2.92846187        1.18831825
 C           -1.11076175        3.68930911        0.10011301
 C           -2.97311102        0.80670720        0.87276075
 C           -2.86956268        2.24389995        0.66546202
 C           -2.50183229       -1.05806479       -0.65988160
 C           -3.09264316        0.18039186       -0.43083669
 C           -1.43429002       -2.54631254       -2.29057043
 C           -2.25560244       -1.39689989       -1.98589927
 C            0.79725015       -2.70911490       -2.99612598
 C            1.93083176       -1.81320880       -2.91074201
 C            1.71377465       -0.38131452       -3.01952987
 C           -0.49696979       -2.15598872       -3.33402270
 C            0.22869889        1.47932407       -3.16199212
 C           -1.89921777       -0.33880999       -2.91836377
 C            0.46789527        0.12891261       -3.39374780
 C           -0.63379633       -0.72051791       -3.52440268
 C           -1.01999273        3.19165263       -2.18727328
 C           -1.91981130        3.47549664       -1.08957155
 C           -2.94018433        2.50229805       -0.76298195
 C           -2.93929717        1.21800691       -1.44111390
 C           -1.12912298        1.92411108       -2.89224534
 C           -2.09523664        0.98211978       -2.52947124
