58
Modified xyz file
 C            1.48404030        0.02259716        4.22006025
 C            0.72596198       -1.21370299        4.18669542
 C            1.53727538       -2.19264769        3.49114036
 C            2.56872465       -0.09990634        3.25757820
 C            2.64116141       -1.48193327        2.85512051
 C            2.36479782        0.90784198        2.23588866
 C            0.61278389        1.08542289        3.75649609
 C            1.31220723        1.78981205        2.70387727
 C           -0.60398099       -0.91333675        3.67910568
 C           -0.67781739        0.51632463        3.42356090
 C           -1.20668264       -1.78886347        2.78768090
 C            0.91501403       -3.01840064        2.47232086
 C           -0.45786995       -2.92200638        2.25527683
 C            2.59549167       -1.79577108        1.44094690
 C            1.81251735       -3.01025702        1.32909768
 C            2.37782541        0.56489069        0.87799279
 C            2.41259560       -0.78408370        0.48907741
 C            1.89114489        1.51680147       -0.02173376
 C            0.55047821        2.40622427        1.72845726
 C            1.15750652        2.59068003        0.49705074
 C           -1.30141606        0.99074383        2.26956967
 C           -0.82908502        2.18766305        1.72958329
 C           -2.02202876       -1.25159524        1.71256225
 C           -1.99703038        0.10979253        1.43054683
 C           -0.98104368       -3.20816769        0.93013403
 C           -1.98078274       -2.19308221        0.61164833
 C            1.31595750       -3.34324775        0.08236988
 C           -0.10405278       -3.63224059       -0.06039540
 C            1.98846984       -1.15204672       -0.79569642
 C            1.67173280       -2.49201383       -1.03575022
 C            1.75578662        1.17997418       -1.36945598
 C            1.62637434       -0.16750729       -1.72912115
 C            1.43937395        2.18512962       -2.28047917
 C            0.54676791        3.48780758       -0.36505770
 C            0.82316056        3.39812012       -1.78273716
 C           -1.57264496        2.78018109        0.71506827
 C           -0.88157590        3.67753136       -0.19827411
 C           -2.38576308        0.54293480        0.15898259
 C           -2.41946409        1.91551780       -0.08777240
 C           -2.08911636       -1.71277931       -0.69187452
 C           -2.41516047       -0.36799292       -0.90938272
 C           -0.44592628       -3.37091219       -1.44465055
 C            0.74021195       -2.82206498       -2.08633261
 C           -1.53394719       -2.45544638       -1.73333299
 C            0.93885064       -0.53011418       -2.90593686
 C            0.29908146       -1.76263877       -2.95813531
 C           -1.15510866       -1.77704713       -2.95532333
 C            0.75757171        1.83961480       -3.50663351
 C            0.40229306        0.45727604       -3.72511620
 C           -0.43501255        3.58305630       -2.48949698
 C           -1.50130880        3.55616626       -1.50319757
 C           -2.40935392        2.41855268       -1.45211465
 C           -0.46639880        2.62785593       -3.57648231
 C           -2.52523648        0.09432161       -2.22492311
 C           -1.80354664       -0.59868926       -3.28279543
 C           -1.02677027        0.40502332       -3.98819196
 C           -2.45577908        1.51903934       -2.50814279
 C           -1.58125480        1.70159837       -3.65935299
