58
Modified xyz file
 C            1.51459174        0.13722948        4.27213929
 C            0.72385197       -1.05597678        4.04311712
 C            1.59841632       -2.00763297        3.39937958
 C            2.64422566        0.08709016        3.35584995
 C            2.75731424       -1.27365066        2.89865883
 C            2.44816276        1.13412327        2.37164639
 C            0.70605165        1.27325543        3.88394573
 C            1.50043749        2.06201726        2.96363936
 C           -0.49497861       -0.66289720        3.35256153
 C           -0.57941732        0.78471074        3.40688835
 C           -0.85495012       -1.31651219        2.17669823
 C            1.07778881       -2.75910810        2.27839621
 C           -0.22126354       -2.51952602        1.83007010
 C            2.82175384       -1.52359385        1.47249357
 C            2.14069236       -2.78705894        1.29249692
 C            2.32646891        0.81459104        1.01029977
 C            2.56013827       -0.49437243        0.56112575
 C            1.73228492        1.75225387        0.15412901
 C            0.80658502        2.88947989        2.10757057
 C            1.21115073        2.91802684        0.71897587
 C           -1.16555681        1.47337015        2.34901571
 C           -0.63498303        2.72822664        2.05585600
 C           -1.63262019       -0.63748421        1.23101599
 C           -1.80564731        0.75591971        1.32668446
 C           -2.16592599       -1.34591730        0.14948271
 C           -0.59803383       -3.16614700        0.65878526
 C           -1.61335147       -2.57466182       -0.19159798
 C            1.80395300       -3.16202310        0.00659343
 C            0.45937131       -3.66676655       -0.20525362
 C            2.19946953       -0.85048932       -0.74056785
 C            2.04338635       -2.20543721       -1.05887886
 C            1.36838603        1.38463273       -1.15285169
 C            1.73673907        0.11916817       -1.63262039
 C            0.55654813        2.23987529       -1.92883770
 C            0.13750347        3.61210355        0.04747506
 C           -1.05957759        3.41080592        0.85718779
 C           -0.19700586        3.22073955       -1.29773841
 C           -2.42320264        1.45855859        0.28025346
 C           -2.03539943        2.76927860        0.00629496
 C           -1.64400160        3.11275417       -1.34711730
 C           -2.88388883       -0.67404111       -0.83126970
 C           -3.08064717        0.75599721       -0.72278424
 C           -2.61122785       -0.98405122       -2.22725544
 C           -1.23961893       -2.81540550       -1.57995045
 C            0.09848581       -3.37543000       -1.57953668
 C            1.17151583       -2.58918492       -2.15601745
 C           -1.55800177       -1.84812239       -2.52857777
 C            1.35902323       -0.28898344       -2.91159844
 C            0.83388233       -1.62851903       -3.08924163
 C           -0.56724234       -1.46185666       -3.44253686
 C            0.09669108        1.83119274       -3.17662379
 C            0.54127654        0.57710865       -3.73089463
 C           -0.64278975       -0.17993058       -4.12268782
 C           -2.20862889        2.40661034       -2.39754759
 C           -3.09975036        1.30400763       -2.07470196
 C           -2.83080458        0.22080097       -3.00662406
 C           -1.32579287        1.95650171       -3.46230280
 C           -1.80183773        0.66435018       -3.92311183
