58
Modified xyz file
 C            1.44228311        0.06303845        4.29029661
 C            0.62056814       -1.13248349        4.34105385
 C            1.26641120       -2.15299520        3.53773656
 C            2.51854120       -0.17903508        3.34423045
 C            2.43478582       -1.55501368        2.91300976
 C            2.45451495        0.85538573        2.33177194
 C            0.62376331        1.14093250        3.75948604
 C            1.31004615        1.69510814        2.61738343
 C           -0.73821650       -0.75106216        4.00634023
 C           -0.71655381        0.63859165        3.56254544
 C           -1.53021801       -1.65264981        3.30914886
 C            0.49258484       -2.81256290        2.49784614
 C           -0.88977707       -2.68932051        2.49889697
 C            2.35865551       -1.81877364        1.49026091
 C            1.20955887       -2.66609714        1.24000242
 C            2.67764396        0.53580185        0.99531915
 C            2.61967441       -0.80528576        0.57760738
 C            2.35529207        1.51912594        0.05552812
 C            0.56822570        2.12463328        1.52655082
 C            1.26868926        2.35566267        0.34567618
 C           -1.41035034        0.99561143        2.40397120
 C           -0.79599735        1.80194697        1.43375102
 C           -2.63229521       -1.11741155        2.53397201
 C           -2.53080501        0.24820615        2.05218601
 C           -1.59360756       -2.75477966        1.23269616
 C           -2.80544628       -1.97075819        1.37672405
 C            0.50187550       -2.48393830        0.04822216
 C           -0.88699208       -2.67216039        0.03153568
 C            2.28690313       -1.05459916       -0.74862039
 C            1.12914454       -1.80613867       -1.01156684
 C            2.69676308        1.26309330       -1.26899528
 C            2.72508827       -0.12462963       -1.67732763
 C            2.09011772        2.02695567       -2.34375262
 C            0.59240985        3.01049776       -0.67517432
 C            1.05854257        2.90801135       -2.04566077
 C           -1.45960575        2.05214173        0.22528102
 C           -0.85505653        2.91705270       -0.68489605
 C           -2.99637507        0.25715607        0.67597173
 C           -3.20251153       -1.12682722        0.26892235
 C           -2.42639926        1.14674046       -0.23111408
 C           -1.60339962       -2.34570704       -1.11681130
 C           -2.78491567       -1.49737705       -0.99718433
 C            0.47313101       -1.69040788       -2.24718067
 C           -0.89373845       -1.93449083       -2.31386984
 C            2.25332480       -0.20763342       -3.03849599
 C            2.00105072        1.14749632       -3.50120121
 C            1.07000936       -0.99475834       -3.29865385
 C            0.78854504        1.11886636       -4.29846038
 C            0.23092474       -0.22197902       -4.20351534
 C           -0.10726487        3.00253521       -2.91160564
 C           -1.28939313        2.91040272       -2.06842765
 C           -0.27059542        2.06738724       -4.01088555
 C           -2.52669546        0.86084664       -1.59918240
 C           -2.65869429       -0.46504194       -2.00365588
 C           -1.75293337       -0.98658434       -3.00806784
 C           -1.18659527       -0.10046978       -3.91267772
 C           -2.08226112        1.79204662       -2.53141058
 C           -1.49237482        1.31569687       -3.77553049
