58
Modified xyz file
 C            1.41104757       -0.16645645        4.62599615
 C            0.56281494       -1.32937359        4.44682018
 C            1.15556582       -2.15529159        3.40968226
 C            2.52205474       -0.28060481        3.69535036
 C            2.28304802       -1.43629152        2.85194325
 C            2.67713953        1.00707959        3.06298020
 C            0.64520822        1.00449624        4.23246175
 C            1.51060946        1.81315952        3.40817981
 C           -0.71630273       -0.86918228        3.93757071
 C           -0.61427116        0.55099530        3.66932378
 C            0.09028578       -2.53957326        2.50240828
 C           -1.07263175       -1.73493296        2.83381201
 C            0.38952659       -2.68326769        1.14989446
 C            2.34519075       -1.31451940        1.46396774
 C            1.64059476       -2.24312222        0.69735931
 C            2.81425218        1.05712521        1.61979969
 C            2.75277843       -0.11085337        0.86318579
 C            0.98144481        2.33800830        2.16661832
 C            2.02500239        2.18182074        1.17647632
 C           -1.02318468        1.01074227        2.41453121
 C           -0.32692683        2.04581978        1.77704835
 C           -1.77512940       -1.19291217        1.76843453
 C           -1.86887117        0.20080445        1.65086968
 C           -0.68306804       -2.67728503        0.25364645
 C           -1.82496843       -1.94695144        0.60231452
 C           -0.42918127       -2.98538175       -1.07974671
 C            1.92534061       -2.31002705       -0.65978012
 C            0.93766306       -2.88930233       -1.55060112
 C            2.59865577        0.03348799       -0.52123600
 C            2.45219136       -1.11728256       -1.29573648
 C            1.63343527        2.21003138       -0.14793407
 C            2.17270178        1.27095443       -1.02718053
 C           -0.67100239        2.35943309        0.46042145
 C            0.36253374        2.69752136       -0.41932456
 C           -2.44074751        0.72710296        0.49063509
 C           -1.87626858        1.88446023       -0.06026148
 C           -2.72231197       -1.53467820       -0.37298498
 C           -3.15607814       -0.15365722       -0.32287474
 C           -1.29165900       -2.46057576       -2.12357765
 C           -2.49410968       -1.87282296       -1.76695840
 C            0.93572284       -2.11970721       -2.78275704
 C            1.88748414       -1.03512134       -2.63495145
 C           -0.44405839       -1.80346201       -3.10963100
 C            1.85413460        1.39623057       -2.37965138
 C            1.56482217        0.20586765       -3.15939489
 C            0.06839446        3.01873843       -1.73624879
 C            0.88715066        2.41480155       -2.77276335
 C           -2.29324275        2.35416662       -1.30817284
 C           -1.31179887        2.97760680       -2.17682617
 C           -3.53917859        0.22984804       -1.66500503
 C           -3.00225649       -0.77485169       -2.57168208
 C           -3.13299987        1.52734656       -2.15347609
 C           -0.76617922       -0.51996404       -3.54981245
 C            0.26172355        0.39997608       -3.78310333
 C           -0.00811909        1.82758747       -3.75492439
 C           -1.34897334        2.29112820       -3.46052213
 C           -2.09639785       -0.09715766       -3.48144372
 C           -2.41860082        1.31826875       -3.40316863
