58
Modified xyz file
 C            1.05816193        0.00953666        4.01844224
 C            2.23458233       -0.25134837        3.22152299
 C            2.16927487       -1.63819621        2.79719855
 C            0.22887264       -1.18890071        3.99371129
 C            0.80855546       -2.09208132        3.02151435
 C           -1.14325271       -0.77260476        3.81944708
 C            0.21058559        1.12514854        3.65618891
 C           -1.16210858        0.67950579        3.80823922
 C            0.52286711        1.92580966        2.55746550
 C            2.46211341        0.54910673        2.03489328
 C            1.56762863        1.55999228        1.68640745
 C            2.70223946       -1.71081045        1.45062140
 C            2.93789057       -0.34732893        0.99540420
 C            2.11621088       -2.60453592        0.56944448
 C            0.06188921       -2.53004474        1.92393508
 C            0.76365469       -3.07254264        0.84495705
 C           -1.85892345       -1.22059364        2.64420841
 C           -1.27908357       -2.13427976        1.76377096
 C           -2.13421324        1.10800320        2.81593298
 C           -2.57428136       -0.07715389        2.09522769
 C           -0.49167997        2.75839241        2.09059310
 C           -1.85883158        2.25731974        2.09447949
 C           -0.30186127        3.49341546        0.85889674
 C            1.57434396        2.01562599        0.36303127
 C            0.79312498        3.10971858        0.00061924
 C            2.68146419       -0.02263254       -0.33490430
 C            2.19411011        1.25349807       -0.63398334
 C            2.19045192       -2.32372403       -0.84944955
 C            2.56135107       -1.05148740       -1.27755035
 C            0.10405692       -3.29576810       -0.43042233
 C            1.05939266       -2.98103130       -1.48195328
 C           -1.91703327       -2.31208763        0.53735042
 C           -1.22480727       -2.93487904       -0.57614577
 C           -2.78813415       -0.02438889        0.71640455
 C           -2.72898249       -1.22562003        0.01023723
 C           -2.34152319        2.35584026        0.73248668
 C           -1.52457378        3.36413884        0.08048096
 C           -2.67532606        1.19598068        0.03406336
 C            0.31112403        3.21692113       -1.36448911
 C           -1.14325273        3.16600679       -1.30602238
 C            2.07786244        1.64746006       -1.96522687
 C            0.97896802        2.51306158       -2.35510289
 C            2.38057129       -0.73625755       -2.62150394
 C            2.23020831        0.65239203       -3.00801102
 C            0.61066411       -2.49993789       -2.70601674
 C            1.42566506       -1.51331900       -3.39591402
 C           -1.67229399       -2.28864032       -1.80148316
 C           -2.59798659       -1.22656350       -1.43559563
 C           -0.78262417       -2.10345311       -2.85524716
 C           -2.64329271        1.22115055       -1.36227976
 C           -1.82119225        2.20890829       -2.05076900
 C           -2.57379091       -0.01877122       -2.11540929
 C            0.21444403        1.79813176       -3.36434084
 C            1.07394260        0.75139685       -3.88830428
 C            0.53463127       -0.58337973       -4.06823867
 C           -0.81837610       -0.86805528       -3.62380710
 C           -1.13576074        1.53871312       -3.14402399
 C           -1.64771765        0.17524280       -3.22098135
