58
Modified xyz file
 C            1.52758348       -0.10122387        4.00440129
 C            0.72209111       -1.30190270        3.90723440
 C            1.33244091       -2.17172254        2.91441913
 C            2.56825729       -0.19057009        2.99567308
 C            2.34639044       -1.39248639        2.22270359
 C            2.57931037        1.06516218        2.28232727
 C            0.67823545        1.02578209        3.65422642
 C            1.36414477        1.78532654        2.63839229
 C           -0.65790407       -0.89196453        3.71372508
 C           -0.63778173        0.51605136        3.34516757
 C           -1.49848804       -1.74830272        3.01747804
 C            0.50321279       -2.99942062        2.17366986
 C           -0.92832180       -2.95140528        2.42923495
 C            0.68002896       -3.06863926        0.73257095
 C            2.30441932       -1.27555281        0.83467043
 C            1.50051874       -2.14440201        0.08420027
 C            2.93389141        1.06856330        0.94000816
 C            2.86227307       -0.14300344        0.22755968
 C            2.65397235        2.25239418        0.26938455
 C            0.63090185        2.35666702        1.60189617
 C            1.38517445        2.89404935        0.56586279
 C           -1.26467221        0.91637608        2.16606487
 C           -0.65081781        1.85741539        1.31288386
 C           -2.42381916       -1.18877614        2.04641683
 C           -2.34774376        0.16153152        1.70976553
 C           -1.61343761       -3.20767146        1.17459842
 C           -0.60925817       -3.40678194        0.15067602
 C           -2.60069188       -2.16219399        0.97989364
 C           -0.89317368       -2.97092510       -1.13263271
 C            1.33878757       -1.93861833       -1.28970604
 C            0.16152085       -2.34811706       -1.91289342
 C            2.99849407       -0.14149453       -1.16008613
 C            2.14224084       -1.01199157       -1.94400399
 C            2.89158445        2.34395433       -1.15279671
 C            3.12146225        1.11650091       -1.87783088
 C            0.75445513        3.21666916       -0.69488654
 C            1.74394419        3.01022804       -1.74462858
 C           -1.28268424        2.21079757        0.10969646
 C           -0.55592984        2.82155150       -0.92500148
 C           -3.04210740        0.58242345        0.58549609
 C           -2.57929044        1.75562918       -0.12373286
 C           -2.84594296       -1.68738249       -0.30537947
 C           -2.11765545       -2.21728943       -1.37810125
 C           -3.39667017       -0.41319117       -0.41494082
 C           -0.46921917       -1.46933353       -2.88545429
 C           -1.89546834       -1.42680109       -2.58295244
 C            1.57096993       -0.22259063       -3.02747152
 C            2.20090431        1.08600487       -3.00298001
 C            1.35916498        2.26768125       -2.93302047
 C            0.20658264       -0.32074734       -3.29557150
 C           -0.95018083        2.66086384       -2.25439350
 C            0.00680129        2.13292814       -3.20981007
 C           -0.51008813        0.83464388       -3.61378034
 C           -3.07939140        1.64382731       -1.48213304
 C           -3.43724633        0.25186751       -1.70313427
 C           -2.60974951       -0.25431751       -2.78041593
 C           -2.22447826        2.05286534       -2.57050664
 C           -1.94754686        0.88106431       -3.39205280
