58
Modified xyz file
 C            1.56952088       -0.11455269        4.24396608
 C            0.66904096       -1.24841912        4.35196522
 C            1.13864009       -2.26640433        3.43550151
 C            2.50813354       -0.38325210        3.16660122
 C            2.26172356       -1.72646563        2.68364186
 C            2.42747062        0.71235822        2.21801734
 C            0.77936034        1.03108694        3.84392798
 C            1.45828045        1.66847418        2.72790766
 C           -0.64425663       -0.82865485        3.88687427
 C           -0.58749315        0.59183763        3.62501147
 C           -0.01207968       -2.73486282        2.68647778
 C           -1.03846794       -1.70738465        2.80301793
 C            0.22837938       -3.26899303        1.43449955
 C            2.29223294       -1.96082268        1.31234799
 C            1.52858056       -3.02286993        0.83190206
 C            2.41458477        0.41820728        0.85609417
 C            2.60270344       -0.90629406        0.44193893
 C            1.85474081        1.35031617       -0.02907416
 C            0.66930367        2.33559126        1.80121186
 C            1.14514786        2.43554197        0.49526138
 C           -1.22429852        1.09367780        2.49953601
 C           -0.71224597        2.27216511        1.97980446
 C           -1.58013069       -1.14594745        1.64263795
 C           -1.86792459        0.22399411        1.60745421
 C           -0.73528065       -3.01803872        0.38620997
 C           -1.52168447       -1.86701800        0.44802642
 C            1.37273105       -3.19539058       -0.60002145
 C           -0.05850895       -3.34670427       -0.85291823
 C            2.70157313       -1.16940881       -0.92144545
 C            2.14186875       -2.40625905       -1.44470781
 C            1.75153266        1.03562841       -1.38841000
 C            2.37530405       -0.11165707       -1.86112140
 C            0.82663971        1.70604985       -2.19776851
 C            0.46164508        3.29001311       -0.36431645
 C            0.34226423        2.93967035       -1.76944661
 C           -1.51053191        2.95674430        1.08442584
 C           -0.84082411        3.75168582        0.07719004
 C           -2.43224967        0.78114744        0.45198096
 C           -2.51988604        2.17843148        0.39201258
 C           -1.95954728       -1.27834305       -0.74006671
 C           -2.48298424        0.01874003       -0.72802514
 C           -0.60082550       -2.87745786       -2.03767318
 C           -1.67609796       -1.90174359       -1.96265915
 C            1.66723801       -2.14638033       -2.79023114
 C            1.87182579       -0.73302622       -3.06754451
 C            0.29032370       -2.46959899       -3.11082379
 C            0.17038379        1.02493365       -3.23854967
 C           -1.62216225       -1.11275776       -3.18213521
 C            0.65433707       -0.21109199       -3.65490357
 C           -0.29708669       -1.30779242       -3.74932732
 C           -2.80931196        0.61554250       -1.95063491
 C           -1.18855899        1.25393495       -3.44856300
 C           -2.11344931        0.17918585       -3.14373903
 C           -0.96032819        3.39701135       -2.22882681
 C           -1.72062071        3.82513443       -1.07112127
 C           -2.78312843        2.85211863       -0.86444242
 C           -1.79633158        2.46861470       -2.95294938
 C           -2.87921483        2.05975459       -2.06399842
