58
Modified xyz file
 C            1.17307664       -0.15183893        3.92746233
 C            2.40018658       -0.45680333        3.22566174
 C            2.20067609       -1.71256594        2.51099351
 C            0.32312260       -1.32280179        3.81702848
 C            0.81912099       -2.09946982        2.69533726
 C           -1.04263444       -0.84937198        3.77147224
 C            0.38792197        0.98472410        3.48112305
 C           -1.00466341        0.59976634        3.60941471
 C            0.79552572        1.68842422        2.34833294
 C            2.89458501        0.49975802        2.25735090
 C            2.14118929        1.63369438        1.95514353
 C            2.69898976       -1.52504504        1.16326009
 C            3.43982829       -0.27675127        1.16126923
 C            1.87584800       -1.81068390        0.07928336
 C            0.00182485       -2.27022660        1.57873118
 C            0.55854784       -2.25535390        0.28909627
 C           -1.90985283       -1.35834774        2.72960613
 C           -1.38603518       -2.19076440        1.73957833
 C           -1.92633283        0.93464112        2.53717988
 C           -2.74190548       -0.24357197        2.31976947
 C           -0.17423346        2.19524389        1.47118852
 C           -1.45013624        1.63067222        1.43075625
 C            0.20618309        3.04010001        0.44054615
 C            2.57487573        2.41798490        0.89041012
 C            1.61749036        3.24420156        0.18340057
 C            3.65199204        0.36755974       -0.04869558
 C            3.44339172        1.80635131       -0.10316105
 C            2.25570304       -1.33069659       -1.17602847
 C            3.07069911       -0.20027629       -1.25568907
 C            1.47395477       -1.63632117       -2.28115408
 C           -0.24221094       -2.57864870       -0.81087250
 C            0.26274510       -2.40830167       -2.09628991
 C           -2.20933492       -2.48536663        0.66036019
 C           -1.61610433       -2.73868460       -0.64010013
 C           -3.42679606       -0.36070929        1.12229350
 C           -3.38058347       -1.64822058        0.45271971
 C           -2.13139304        1.52920716        0.21038868
 C           -3.21064217        0.64977983        0.09741000
 C           -0.46307803        2.91721787       -0.84036816
 C           -1.60941489        2.13250775       -0.94049387
 C            1.84227348        3.07416826       -1.24489140
 C            2.92472626        2.13825458       -1.41954873
 C            2.65164951        0.89711408       -2.11493600
 C            0.56763992        2.76229774       -1.85422403
 C            1.16703604       -0.56838783       -3.21849919
 C            1.47727295        0.74072385       -2.85086485
 C            0.45254706        1.70717686       -2.75890952
 C           -0.64229375       -2.05189256       -3.17737390
 C           -0.10076404       -0.87636208       -3.84334991
 C           -2.53860164       -2.23525995       -1.65265353
 C           -3.51929936       -1.41083339       -0.97044688
 C           -3.49592087        0.02657539       -1.18440441
 C           -2.03431330       -1.79049083       -2.86691611
 C           -1.92466286        1.61048947       -2.19658403
 C           -0.84689572        1.38408714       -3.14826371
 C           -1.11824562        0.14478669       -3.84875052
 C           -2.87277960        0.51560330       -2.32260970
 C           -2.33149534       -0.42906299       -3.29048906
