58
Modified xyz file
 C            1.13839924       -0.02621347        4.14639201
 C            2.44860253       -0.34438607        3.62722588
 C            2.33049228       -1.62410678        2.93449932
 C            0.32094812       -1.21181473        3.96325362
 C            0.92551923       -1.95823841        2.88064019
 C           -1.03298124       -0.75226925        3.79496885
 C            0.39828959        1.06800102        3.54177911
 C           -0.99072455        0.70278262        3.68580313
 C            0.84018753        1.61130156        2.33238279
 C            3.05355768        0.59005959        2.70135275
 C            2.20251697        1.55522203        2.02274135
 C            3.04916401       -1.50891853        1.69076855
 C            3.68856808       -0.20536738        1.67380802
 C            2.45103119       -1.93433096        0.51244486
 C            0.28570592       -2.00865100        1.63650912
 C            1.04970560       -2.09319349        0.46362095
 C           -1.77313657       -1.21065725        2.64123951
 C           -1.09610232       -1.77750083        1.55393918
 C           -1.91647221        1.06101329        2.63383476
 C           -2.69530072       -0.13226008        2.37594546
 C           -0.08093304        1.92913125        1.32046567
 C           -1.46443228        1.78619197        1.53452297
 C            0.39563970        2.24176062        0.04128691
 C            2.62190829        1.59006662        0.62929751
 C            3.62426591        0.54950574        0.43550985
 C            1.65670677        1.80170305       -0.35058710
 C            3.11580884       -1.55991804       -0.64635301
 C            3.57635740       -0.18187280       -0.73964562
 C            2.54244844       -1.91144624       -1.92016430
 C            0.39706989       -2.15938219       -0.77784458
 C            1.15591536       -2.31389803       -1.94025140
 C           -1.73020851       -1.74279374        0.30467926
 C           -0.96624886       -1.83261069       -0.87018492
 C           -3.39123840       -0.18145909        1.19077315
 C           -3.02950523       -1.22815422        0.25540860
 C           -2.33905254        1.89708519        0.44932546
 C           -3.43242002        1.02376270        0.38898491
 C           -0.48514721        2.68171334       -0.93491740
 C           -1.90919521        2.56520217       -0.69505674
 C           -0.22871079        2.31232127       -2.31709984
 C            1.84083776        1.28875961       -1.64187245
 C            2.87789614        0.38369595       -1.87339035
 C            2.65215839       -0.73314684       -2.76530916
 C            0.82648229        1.44558179       -2.59733669
 C            0.63511013       -1.82426043       -3.19496514
 C            1.47990085       -0.70890997       -3.60409264
 C            0.63904350        0.47159366       -3.58413787
 C           -1.54663184       -1.55426758       -2.12768099
 C           -0.72589315       -1.35039286       -3.22911415
 C           -0.69913223       -0.02660370       -3.83129256
 C           -3.60079480       -0.82640137       -1.01088346
 C           -3.95250600        0.58445986       -0.89165615
 C           -2.80730096       -0.97316960       -2.20235343
 C           -2.55641964        2.33043550       -1.97733963
 C           -1.51514759        2.09830576       -2.96497157
 C           -1.77517931        0.81747434       -3.60310899
 C           -3.52242721        1.25874220       -2.09635808
 C           -2.95699524        0.25072291       -2.97543546
