58
Modified xyz file
 C            1.30557679       -0.06409397        3.58167112
 C            2.54685352       -0.34656577        2.90228037
 C            2.50170798       -1.73147654        2.46676968
 C            0.45983702       -1.24733065        3.47744739
 C            1.12908263       -2.18464357        2.60428979
 C           -0.86906596       -0.79199962        3.12391128
 C            0.50904723        1.05924564        3.13294090
 C           -0.86767265        0.64667581        3.31190087
 C            0.85645871        1.74733560        1.96538421
 C            2.90395255        0.45627713        1.75233394
 C            2.10476918        1.53046730        1.36035417
 C            3.12354888       -1.80663349        1.15671967
 C            3.41869343       -0.44197920        0.73109407
 C            2.59857779       -2.70048511        0.23677745
 C            0.46945355       -2.65937409        1.47508902
 C            1.23920453       -3.18613720        0.43424083
 C           -1.50241598       -1.31665525        1.99842547
 C           -0.87447250       -2.32844666        1.24892317
 C           -2.60082104       -0.61865381        1.47522426
 C           -1.84807163        1.38475352        2.68109067
 C           -2.86418171        0.67539757        1.92542156
 C           -0.14103360        2.47875039        1.30135242
 C           -1.43070299        2.49214321        1.84334541
 C            0.09474769        3.01312632        0.02559687
 C            2.36621490        2.08706540        0.11579372
 C            1.35943502        2.89827686       -0.53853427
 C            3.28694168       -0.07240846       -0.60914262
 C            3.01382039        1.26353474       -0.89765614
 C            2.76258898       -2.41371381       -1.17272400
 C            3.03424733       -1.04672298       -1.58037433
 C            0.64804555       -3.40317783       -0.87626890
 C            1.56113591       -2.85425021       -1.86387445
 C           -1.50726428       -2.85128451        0.12365497
 C           -0.70925050       -3.18203062       -1.04154425
 C           -3.22372947       -1.05606957        0.31021757
 C           -2.71590910       -2.22634430       -0.37125615
 C           -3.57044982       -0.08729830       -0.71792156
 C           -3.44279197        1.64303227        1.00595151
 C           -2.57149081        2.80985408        1.00610748
 C           -3.67433161        1.25407197       -0.37495099
 C           -0.97221280        3.27795374       -0.83763762
 C           -2.33843802        3.19229609       -0.36536786
 C           -3.03267108        2.24307136       -1.22447211
 C           -0.95627368        2.70554538       -2.17308889
 C           -2.08568171        1.79839115       -2.23745962
 C            1.46077240        2.65788234       -1.96971655
 C            2.43938877        1.60842445       -2.18454662
 C            0.25702740        2.29667154       -2.69603677
 C            2.14691401       -0.75052081       -2.69920616
 C            1.10364615       -1.75943462       -2.70388165
 C            1.80762998        0.56373058       -2.96613028
 C            0.40251739        0.90953681       -3.10633595
 C           -1.14450349       -2.28899303       -2.10331764
 C           -2.47904979       -1.85473689       -1.76148540
 C           -2.81068269       -0.45501962       -1.90122146
 C           -1.86209281        0.43224120       -2.40489412
 C           -0.23616594       -1.37780704       -2.63816403
 C           -0.58040975       -0.02146491       -2.75709946
