58
Modified xyz file
 C            1.29973605       -0.11008390        3.84360997
 C            2.54872839       -0.28338328        3.12658816
 C            2.53110454       -1.60995096        2.54159411
 C            0.45065757       -1.25674913        3.54469539
 C            1.17412947       -2.12098685        2.64321834
 C           -0.83781626       -0.75267573        3.13117135
 C            0.51215993        1.08645844        3.60894852
 C           -0.86918434        0.65969307        3.46395003
 C            1.00853701        2.08592557        2.77641387
 C            2.89652068        0.65444324        2.07360937
 C            2.18799607        1.84134050        1.95254488
 C            3.12733830       -1.52259188        1.22048797
 C            3.20659981       -0.11043548        0.87482593
 C            2.67199173       -2.40735079        0.25802664
 C            0.56190024       -2.58151629        1.48125981
 C            1.41082053       -3.08922030        0.50271188
 C           -1.38889058       -1.16966337        1.92174885
 C           -0.70794179       -2.09604416        1.10853068
 C           -2.46556288       -0.44250922        1.40723301
 C           -1.76509882        1.47188058        2.78584760
 C           -2.71194139        0.84749868        1.87997614
 C            0.08027625        2.89107227        1.99715053
 C           -1.28557206        2.68334958        2.13347043
 C            1.92240573        2.37217272        0.62905228
 C            0.65148465        3.07909186        0.66913531
 C            2.73424455        0.32262723       -0.36834803
 C            2.24314089        1.63150482       -0.50412357
 C            2.63232745       -1.97158061       -1.12245791
 C            2.59274844       -0.60929220       -1.40975600
 C            0.87204476       -3.47252558       -0.78057955
 C            1.70655943       -2.85963531       -1.80396246
 C           -1.27928651       -2.49707448       -0.11216534
 C           -0.49914951       -3.13471368       -1.07697667
 C           -3.07020323       -0.85083539        0.22456315
 C           -2.49408825       -1.95230920       -0.51873581
 C           -3.52455409        0.15229619       -0.73353546
 C           -3.13181989        1.86933934        0.94134425
 C           -2.14602878        2.93552426        0.99280046
 C           -3.31488014        1.49162080       -0.44560032
 C           -0.16475601        3.07541720       -0.46549295
 C           -1.55210502        3.05005867       -0.32724680
 C           -2.34655592        2.23932342       -1.24022228
 C            1.68852392        2.04848699       -1.70792211
 C            0.39219828        2.70941962       -1.68905364
 C            2.09283730       -0.21217529       -2.64799674
 C            1.72396853        1.16910370       -2.85410071
 C            0.82840987       -2.30908423       -2.82206985
 C           -0.53437603       -2.65915414       -2.45153943
 C            1.09861181       -1.03967785       -3.31869126
 C           -2.70435591       -1.68303868       -1.93282015
 C           -3.18810398       -0.32032220       -2.05896353
 C           -1.58749292       -1.84527291       -2.84646583
 C           -1.72178133        1.63546872       -2.33282462
 C           -0.44411650        2.06104860       -2.68742991
 C            0.41113743        1.19585037       -3.48125923
 C            0.00058032       -0.17443709       -3.72159309
 C           -2.21468055        0.42686147       -2.83403807
 C           -1.30937725       -0.54258775       -3.43853755
