58
Modified xyz file
 C            1.52064506        0.05815731        4.01830417
 C            0.67804421       -1.10886449        3.82561289
 C            1.30793893       -1.94651183        2.82474704
 C            2.52650418        0.05664470        2.96877927
 C            2.44683075       -1.21210606        2.29041505
 C            2.35422155        1.25556582        2.18066782
 C            0.69607252        1.23367194        3.82228699
 C            1.37846198        2.08784672        2.86982505
 C           -0.67707796       -0.65555942        3.59026668
 C           -0.65276388        0.79671048        3.49924853
 C           -1.46200309       -1.36921124        2.70261041
 C            0.51231862       -2.66591942        1.93099967
 C           -0.87212458       -2.45726138        1.92565114
 C            1.12684100       -3.14191105        0.77298983
 C            2.65509384       -1.26398229        0.92093167
 C            2.34230962       -2.47841287        0.33285495
 C            2.29524342        1.15206859        0.78883777
 C            2.52811938       -0.08655396        0.15626414
 C            1.74966815        2.21837072        0.06692965
 C            0.59609098        2.93491446        2.10604524
 C            0.98233507        3.17373254        0.73106950
 C           -1.32400311        1.45032474        2.46241668
 C           -0.83975059        2.70004586        2.07810326
 C           -2.35312034       -0.64293525        1.82078683
 C           -2.13676886        0.71485013        1.58341060
 C           -1.61477976       -2.54218226        0.67286858
 C           -2.65232815       -1.52536694        0.70943197
 C            0.33192375       -3.38000951       -0.41931881
 C           -0.93110280       -2.80084736       -0.51296880
 C            2.43198217       -2.61261744       -1.09882820
 C            1.24683437       -3.32979312       -1.54296961
 C            2.48864529       -0.16676927       -1.24834898
 C            2.53248766       -1.40721390       -1.88665298
 C            1.69420338        2.15796035       -1.31972484
 C            2.09823250        0.94267619       -1.99467967
 C            0.53696865        2.69971588       -2.02330738
 C           -0.19281654        3.71661250        0.07436183
 C           -1.34453695        3.32661125        0.87623042
 C           -0.46133063        3.34077036       -1.30145052
 C           -2.61702843        1.28551596        0.39342194
 C           -2.23134408        2.57200692        0.02235048
 C           -1.82085863        2.82621121       -1.35041411
 C           -3.09232196       -0.97189177       -0.47663276
 C           -3.21154620        0.47247827       -0.57259605
 C           -1.37340171       -2.22757093       -1.71696508
 C           -2.52979602       -1.44844303       -1.72741567
 C            0.80473624       -2.71609722       -2.77251674
 C            1.71781817       -1.62240790       -3.07023859
 C           -0.53764453       -2.17951265       -2.83620424
 C            1.22947857        0.76660746       -3.15254304
 C            0.17332460        1.76153137       -3.07158041
 C            0.92865310       -0.51750522       -3.58492768
 C           -0.45999274       -0.95400129       -3.61512834
 C           -2.17691130        1.91347066       -2.33568507
 C           -3.06840705        0.82518039       -1.97601456
 C           -2.64142583       -0.36543132       -2.69201417
 C           -1.15603104        1.37567346       -3.22577506
 C           -1.48081096       -0.01903585       -3.49381868
