58
Modified xyz file
 C            1.51948328       -0.22382732        4.48081587
 C            0.71724397       -1.43105252        4.43658936
 C            1.31607851       -2.32727913        3.46190740
 C            2.59927417       -0.37010908        3.51876430
 C            2.47975520       -1.67400864        2.89599618
 C            2.59283857        0.80793931        2.67131002
 C            0.68450875        0.87607032        4.03040001
 C            1.43776399        1.61743591        3.04066919
 C           -0.60115375       -1.06936320        3.94156211
 C           -0.60037242        0.34117071        3.62801121
 C            0.26210146       -2.75956618        2.56510170
 C           -0.93366287       -1.98823826        2.87958205
 C            0.55390806       -2.98949881        1.22140312
 C            2.69650794       -1.77822797        1.52866810
 C            1.78867509       -2.57528063        0.71059606
 C            2.90562827        0.68445090        1.31723297
 C            3.04772847       -0.59012648        0.75893352
 C            2.56699809        1.74872714        0.48595645
 C            0.74199956        2.24712943        2.01561678
 C            1.49177331        2.62904612        0.91083855
 C           -1.11191660        0.74912826        2.39989770
 C           -0.60581691        1.91675319        1.82571173
 C           -1.70173526       -1.53635804        1.81367321
 C           -1.82920763       -0.15488541        1.59766038
 C           -0.52911667       -3.08156061        0.35330894
 C           -1.74898457       -2.37823144        0.71673258
 C           -0.33355927       -2.86691073       -1.06809453
 C            1.87920610       -2.06602686       -0.65430406
 C            2.63936778       -0.83200307       -0.62054973
 C            0.77802269       -2.14965840       -1.49691934
 C            2.39486569        1.52739025       -0.93854305
 C            2.22536675        0.22934266       -1.41387548
 C            0.82070535        3.12433675       -0.27656955
 C            1.53133012        2.58925651       -1.42889887
 C           -1.29985104        2.47398317        0.75944317
 C           -0.56653706        3.17015708       -0.28663899
 C           -2.40351199        0.31266155        0.40321408
 C           -2.32739320        1.67632515        0.11667714
 C           -2.37117780       -1.91987870       -0.50326927
 C           -1.63899091       -2.52911480       -1.60313917
 C           -2.76695926       -0.59017666       -0.60802759
 C           -1.70371177       -1.91777204       -2.84189040
 C            0.62392129       -1.21322286       -2.52442855
 C            1.34058998       -0.00358171       -2.47163304
 C           -0.47652158       -1.35283052       -3.37686803
 C            0.84787613        2.38848552       -2.61791743
 C            0.95313878        1.08932318       -3.25058158
 C           -1.27819813        2.97255067       -1.53865857
 C           -2.44411120        2.14237975       -1.25340016
 C           -0.54977111        2.77742482       -2.70946409
 C           -3.12496765       -0.12280911       -1.87535476
 C           -2.73227379       -0.91459799       -3.03037561
 C           -2.93365305        1.27620760       -2.21883822
 C           -0.85573532       -0.27632649       -4.27279543
 C           -0.16097222        0.98426914       -4.17054054
 C           -1.13209191        2.00403209       -3.79244870
 C           -2.27259670       -0.01489778       -4.07108011
 C           -2.40210572        1.34144428       -3.57116904
