58
Modified xyz file
 C            1.33914276        0.19555322        4.40502224
 C            0.47457350       -0.96914440        4.34187198
 C            1.20083548       -2.03327231        3.67326909
 C            2.55348327       -0.11418507        3.67193220
 C            2.48773728       -1.50402818        3.25855427
 C            2.72662632        0.90183111        2.64996866
 C            0.66861359        1.28102110        3.70952277
 C            1.53891369        1.74182647        2.64424503
 C           -0.79821569       -0.54776948        3.78588330
 C           -0.66550755        0.83523365        3.35462106
 C           -1.48886169       -1.42441355        2.96332232
 C            0.58846721       -2.67349642        2.52134601
 C           -0.77287964       -2.52315867        2.31480859
 C            2.66788977       -1.81832361        1.85122811
 C            1.48215299       -2.51923004        1.38437863
 C            3.27100051        0.53309296        1.42939845
 C            3.24366693       -0.87134758        1.02043128
 C            2.91938084        1.31090196        0.25626843
 C            0.96242297        2.08738979        1.42263621
 C            1.74754514        2.06772684        0.26402612
 C           -1.17799570        1.20706386        2.11238136
 C           -0.42886477        2.06608371        1.30571778
 C           -2.38454959       -0.87035835        1.96551752
 C           -2.20029137        0.44410533        1.53622995
 C           -1.27874087       -2.60911332        0.95839361
 C           -2.54434190       -1.90508166        0.96750441
 C            0.95377253       -2.22557451        0.11956375
 C           -0.41128913       -2.41381959       -0.12053821
 C            2.90131795       -0.89005557       -0.38868088
 C            3.17384267        0.44652958       -0.87524433
 C            1.73342509       -1.53177438       -0.81168639
 C            2.63045081        0.80383090       -2.08956313
 C            1.17491862        2.41875807       -0.96399486
 C            1.80136695        1.99374721       -2.13818634
 C           -1.00725707        2.56837566        0.15193193
 C           -0.15908632        2.82801226       -0.99803277
 C           -2.72182079        0.81615725        0.29175969
 C           -2.24163863        1.97152740       -0.32690708
 C           -3.07967316       -1.54444952       -0.24941956
 C           -3.39955862       -0.14513611       -0.46213598
 C           -0.96239627       -2.05163668       -1.35424896
 C           -2.35525044       -1.94026515       -1.43599311
 C            1.18950872       -1.16662025       -2.04770088
 C            1.87167012       -0.20194237       -2.79814534
 C           -0.15250373       -1.45801791       -2.33376250
 C            1.04436305        1.89417288       -3.37670355
 C            1.19073594        0.52233853       -3.84983039
 C           -0.96781491        2.63404662       -2.19520234
 C           -2.26060110        2.10238755       -1.77857834
 C           -0.37114803        2.20200623       -3.37468066
 C           -3.52998113        0.01299202       -1.90257000
 C           -2.96677914       -1.18741933       -2.51003766
 C           -2.91940383        1.15403605       -2.55346613
 C           -0.71788068       -1.03136927       -3.54376843
 C           -0.10621013        0.05943515       -4.27369954
 C           -1.02023945        1.18848199       -4.18768597
 C           -2.14156663       -0.77759316       -3.61777959
 C           -2.30547672        0.65993110       -3.77349178
