58
Modified xyz file
 C            1.26921671       -0.37363405        3.83217982
 C            2.21612181       -0.72422729        2.78525286
 C            1.96188250       -2.10601495        2.40750751
 C            0.40027629       -1.51412879        4.05681281
 C            0.74676601       -2.52922383        3.07918294
 C           -0.96059776       -1.08937945        3.78505843
 C            0.43085556        0.79581501        3.64165364
 C           -0.94107016        0.33520228        3.49219726
 C            0.89222611        1.79314263        2.79998638
 C            2.50309959        0.22089338        1.79891656
 C            2.07431137        1.53551344        1.99242770
 C            2.89582808       -0.20237401        0.52276866
 C            2.13267098       -2.47526005        1.08447504
 C            2.76024717       -1.54215883        0.16703188
 C            1.01336845       -3.07605183        0.37592259
 C           -0.43158196       -2.80159161        2.27116560
 C           -1.52020049       -1.99043277        2.79424176
 C           -0.27774268       -2.94596763        0.89132075
 C           -2.45334382       -1.47998328        1.90845240
 C           -1.71954590        0.81176792        2.43610219
 C           -2.66933210       -0.04198443        1.87170946
 C           -0.05383628        2.49326794        1.95085741
 C           -1.32818880        1.96835565        1.74974883
 C            2.03451557        2.45707473        0.87318665
 C            0.68793170        3.01425397        0.81202551
 C            3.09716288        0.73296768       -0.49203008
 C            2.68306840        2.11323835       -0.29931608
 C            2.79295910        0.36448768       -1.86802987
 C            2.30456145       -1.87875653       -1.17372350
 C            1.25133831       -2.87907775       -1.04116754
 C            2.19916861       -0.86839137       -2.12935256
 C            0.16947050       -2.84702784       -1.90263304
 C           -1.33991278       -2.62742915        0.03559616
 C           -2.44495051       -1.94016094        0.53207862
 C           -1.16403074       -2.68382246       -1.34683230
 C           -3.24544856        0.26914363        0.57754741
 C           -3.05563816       -0.89662482       -0.27827424
 C           -2.05164737        2.39910185        0.63786481
 C           -3.06464536        1.53607370        0.05239243
 C            0.03950523        3.15448758       -0.41477510
 C           -1.35030140        3.06528069       -0.45117960
 C            2.14863514        2.60082247       -1.55572121
 C            2.30692470        1.55171185       -2.54867588
 C            0.76978062        3.05374301       -1.60126286
 C            1.07677210        1.46831910       -3.31386730
 C            0.15919266        2.46877706       -2.78791201
 C            1.25615515       -0.97792763       -3.15400601
 C            0.25970022       -2.03267269       -3.09871027
 C            0.59854413        0.21441679       -3.67265994
 C           -1.88791619       -1.74543378       -2.19365732
 C           -2.64780668       -0.73842392       -1.60259125
 C           -1.04189078       -1.42973824       -3.33101771
 C           -0.83510658       -0.03838912       -3.68756989
 C           -3.00454633        1.68717233       -1.38826149
 C           -2.01213074        2.70415427       -1.69237398
 C           -1.20913767        2.22980106       -2.80410313
 C           -2.71247082        0.52119149       -2.20290228
 C           -1.70923645        0.91611152       -3.18305760
