58
Modified xyz file
 C            1.47561456        0.13577862        4.39893172
 C            0.67942222       -1.07819109        4.41358767
 C            1.48539319       -2.13764161        3.83534245
 C            2.64457316       -0.11627442        3.57171372
 C            2.73495962       -1.54608309        3.37539616
 C            2.56263359        0.75601221        2.40892827
 C            0.69091485        1.16954275        3.74806432
 C            1.46066325        1.67403272        2.63428783
 C           -0.61042199       -0.77276919        3.81930611
 C           -0.62554423        0.63886436        3.46192835
 C           -1.19135171       -1.68606329        2.94974368
 C            0.93898606       -2.92574685        2.74228493
 C           -0.38443371       -2.74704573        2.35392901
 C            2.99186409       -2.03881122        2.03983027
 C            1.96035879       -3.01427711        1.71918960
 C            2.75654803        0.25154161        1.11496759
 C            3.05387523       -1.09967432        0.92917695
 C            2.24161186        0.98067518        0.03174408
 C            0.77630611        2.11613689        1.51804176
 C            1.46339110        2.10225043        0.31774281
 C           -1.24465004        1.02944405        2.27422574
 C           -0.61556051        1.98998382        1.46865092
 C           -2.08403515       -1.19122805        1.91857930
 C           -2.19247292        0.18008770        1.70167717
 C           -0.74253639       -2.83538720        0.94231346
 C           -1.96241732       -2.06973056        0.76636221
 C            1.58863658       -2.80710346        0.32982139
 C            2.47133820       -1.78496998       -0.20292848
 C            0.24293313       -2.77438386       -0.04322358
 C            2.09397061        0.35310217       -1.21604217
 C            1.99772387       -1.03753684       -1.26320639
 C            1.56995752        1.07948231       -2.29677497
 C            0.91121482        2.82552597       -0.72102977
 C            1.15684329        2.39506984       -2.07932084
 C           -1.26731833        2.45928470        0.32304646
 C           -0.50269602        3.14118891       -0.62643889
 C           -2.84159556        0.59181068        0.54587480
 C           -2.46002457        1.85016092       -0.06753341
 C           -2.25789507       -1.54919549       -0.48601100
 C           -3.00392776       -0.37407763       -0.52877829
 C           -0.07620534       -2.20277588       -1.27968619
 C            0.95602714       -1.58326485       -1.99127937
 C           -1.40500235       -1.84451938       -1.55041785
 C            1.09310644        0.36867648       -3.40752834
 C            0.68800509       -1.01301044       -3.22124786
 C            0.14897303        0.97573591       -4.33477726
 C            0.09967904        2.98990364       -2.88425343
 C           -0.99671874        3.31073776       -1.98239695
 C           -0.44752633        2.24982577       -4.00018866
 C           -2.81859986        1.76164553       -1.47903163
 C           -3.11189022        0.36216498       -1.77430399
 C           -2.15380587        2.55202435       -2.41046479
 C           -1.86152633        2.02193621       -3.73260878
 C           -1.72564418       -1.36218954       -2.81966299
 C           -0.64478156       -1.15533870       -3.76067556
 C           -0.93539792        0.03044042       -4.54650130
 C           -2.62476092       -0.22254086       -2.93558689
 C           -2.14678358        0.62676378       -4.01278914
