58
Modified xyz file
 C            1.20185799        0.06282639        4.56362639
 C            0.49378163       -1.13240887        4.13735949
 C            1.42038259       -1.97142870        3.41509460
 C            2.52268279        0.03250673        3.95943685
 C            2.66771639       -1.23540324        3.27188717
 C            2.68685521        1.25536915        3.20034859
 C            0.49350175        1.21411698        4.02521981
 C            1.43632653        2.00009517        3.26803209
 C           -0.70835193       -0.71146911        3.45299476
 C           -0.69201515        0.73161324        3.34687766
 C           -1.14356153       -1.40550484        2.33357164
 C            1.03245199       -2.44635605        2.09698312
 C           -0.25489046       -2.23020256        1.62503752
 C            3.01489067       -1.24194889        1.86069419
 C            2.13353225       -2.19204393        1.19428088
 C            3.06567501        1.17666580        1.79918958
 C            3.34726315       -0.05577624        1.20157396
 C            1.08112534        2.38226247        1.91349874
 C            2.23655629        2.13251527        1.07916359
 C           -1.07441697        1.27928593        2.12121004
 C           -0.17492002        2.07633660        1.39818786
 C           -2.15049794       -0.79937723        1.59837681
 C           -2.05065950        0.58626393        1.39935772
 C           -2.71959437       -1.57355049        0.60289863
 C           -0.48029877       -2.41760810        0.25909751
 C           -1.80240958       -2.38515504       -0.17259840
 C            1.87575965       -2.00949814       -0.16320979
 C            0.55374307       -2.11576757       -0.64292281
 C            3.38737939       -0.09409051       -0.18724503
 C            2.79822940       -1.23960935       -0.85969447
 C            2.04660542        1.94002153       -0.28387300
 C            2.92372868        1.06961518       -0.91961091
 C           -0.34871614        2.18023427        0.02042492
 C            0.76860977        2.13356877       -0.82907123
 C           -2.49622936        1.13229564        0.19240461
 C           -1.61849060        1.97030619       -0.50648321
 C           -3.64487462       -0.94637586       -0.31096695
 C           -3.53905941        0.48439734       -0.47202497
 C           -2.09642324       -2.14684159       -1.57021533
 C           -3.41681071       -1.53558853       -1.61518940
 C            0.24841820       -1.75368957       -1.97264669
 C           -1.08329264       -1.67481729       -2.39817118
 C            2.51046046       -0.83261585       -2.21309050
 C            2.62673401        0.62022777       -2.26131893
 C            1.22463110       -1.17024678       -2.77929326
 C            0.57882054        1.96902284       -2.20917788
 C            1.43144692        1.11423415       -2.90906466
 C            0.85730208       -0.03045830       -3.59407578
 C           -1.82357013        2.26622166       -1.84985173
 C           -0.68718202        2.18970689       -2.74979715
 C           -3.80423833        0.76157268       -1.86954610
 C           -3.68271970       -0.50090064       -2.59275818
 C           -2.98314186        1.73910457       -2.54493560
 C           -1.40370643       -0.91270949       -3.53109949
 C           -0.45180738        0.06951005       -4.02182232
 C           -1.09284925        1.36176020       -3.87422705
 C           -2.71970369       -0.30204593       -3.65252936
 C           -2.52203653        1.13183133       -3.78031736
