58
Modified xyz file
 C            1.48271799        0.03679317        3.99355456
 C            0.66448967       -1.15692526        3.88805095
 C            1.18989407       -1.97145525        2.80855516
 C            2.50375131       -0.03305323        2.96321827
 C            2.35576334       -1.28679784        2.26196187
 C            2.43128319        1.18082999        2.18603281
 C            0.63305300        1.17761057        3.69556579
 C            1.23296813        1.89986169        2.59891630
 C           -0.71697717       -0.73597265        3.81525904
 C           -0.71894211        0.69558181        3.53302774
 C           -1.60474956       -1.54354642        3.12224136
 C            0.30090364       -2.59970134        1.93363474
 C           -1.07724597       -2.50578991        2.15701046
 C            0.76092831       -2.95788909        0.66812635
 C            2.55420880       -1.30865149        0.88637830
 C            1.99703143       -2.36958179        0.18171065
 C            2.71664656        1.12473021        0.82610818
 C            2.88391256       -0.12477352        0.20497905
 C            2.29264234        2.20853573        0.06372697
 C            0.41823210        2.43777000        1.60706476
 C            1.06431796        2.87850420        0.45401444
 C           -1.49156501        1.17798598        2.47663877
 C           -0.93777312        2.07141817        1.54260273
 C           -2.76172606       -0.91138534        2.51906706
 C           -2.66621396        0.49233689        2.16547922
 C           -1.99438039       -2.54805198        1.02514738
 C           -3.09479268       -1.64546582        1.31284418
 C           -0.16658383       -3.01171489       -0.45211007
 C           -1.48413971       -2.60971760       -0.26903521
 C            1.93177294       -2.32272198       -1.26518917
 C            0.55764417       -2.61512005       -1.65201534
 C            3.09645778       -0.17592073       -1.17594799
 C            2.62667958       -1.32781552       -1.93206638
 C            2.33595365        2.14365215       -1.38337624
 C            2.85871843        1.00882741       -1.98674435
 C            0.31030798        3.17124121       -0.75036540
 C            1.11216455        2.75477852       -1.89184156
 C           -1.70821545        2.47832974        0.45034274
 C           -1.06095295        2.97050399       -0.75478869
 C           -3.28000476        0.65023288        0.85919266
 C           -3.48678896       -0.68108537        0.30306685
 C           -2.85046068        1.68102058        0.03743177
 C           -2.15876196       -1.97059069       -1.30983802
 C           -3.13798893       -0.93150868       -1.01648296
 C           -0.07204328       -1.83645386       -2.62212504
 C           -1.43639023       -1.57216086       -2.50958381
 C            2.10321535       -0.85159564       -3.19828167
 C            2.34396603        0.57910588       -3.27444134
 C            0.70243076       -1.08428162       -3.50510463
 C            0.48926796        2.24438480       -3.02662118
 C            1.14332524        1.20359906       -3.80025286
 C            0.16675924        0.15392625       -4.04386309
 C           -1.69956258        2.33942739       -1.90132710
 C           -2.74766668        1.46572363       -1.39809906
 C           -2.88443155        0.18169524       -1.91503728
 C           -1.96599428       -0.28452640       -2.94040222
 C           -0.93372273        1.94482616       -2.99498363
 C           -1.12333349        0.62102147       -3.57102688
