58
Modified xyz file
 C            1.47981467        0.10350033        4.11991356
 C            0.69975055       -1.10759510        3.95850503
 C            1.52405918       -2.05961756        3.24928344
 C            2.64936016       -0.01183369        3.26179239
 C            2.66511479       -1.34375006        2.70073359
 C            2.62483570        1.10590247        2.34734764
 C            0.68043922        1.21327163        3.62813992
 C            1.49092233        1.94775607        2.69102152
 C           -0.58084689       -0.74462058        3.37375636
 C           -0.57749551        0.69318128        3.15056275
 C           -1.13959742       -1.56061388        2.39028238
 C            0.91393921       -2.78334621        2.15993523
 C           -0.46397494       -2.72965685        1.99496976
 C            2.62476301       -1.49137968        1.25148475
 C            1.72898501       -2.59189316        0.97222706
 C            2.87131798        0.89624949        0.99225233
 C            2.57405183       -0.36056206        0.44139075
 C            2.72068100        2.01837520        0.19083531
 C            0.87358285        2.60316473        1.63483504
 C            1.74201186        2.99931005        0.63006283
 C           -1.08348861        1.17440888        1.94671291
 C           -0.43285478        2.22293204        1.26495690
 C           -2.07469956       -0.98471237        1.52242791
 C           -2.01890539        0.39161769        1.27458298
 C           -2.80680727       -1.81503413        0.67748834
 C           -0.94163667       -3.41857836        0.88979190
 C           -2.28251965       -3.13874581        0.42620491
 C            1.07837232       -2.66186797       -0.25513706
 C           -0.07572114       -3.44629703       -0.28054364
 C            1.94788089       -0.44718109       -0.81227606
 C            1.19871266       -1.59177082       -1.16223943
 C            2.52363154        1.85207489       -1.23062060
 C            2.05119656        0.62956679       -1.70060080
 C            1.20583116        3.64394651       -0.53994773
 C            1.90517438        3.08757822       -1.68477675
 C           -0.96870752        2.68296428        0.04464640
 C           -0.20787134        3.50234587       -0.79313716
 C           -2.69186367        0.93479372        0.19035583
 C           -2.12480099        2.09443951       -0.47079698
 C           -3.32139434       -1.29821856       -0.58213737
 C           -3.23464565        0.06053401       -0.83473778
 C           -2.29949823       -3.36833326       -1.00627104
 C           -0.91686052       -3.43418041       -1.45210437
 C           -2.90800885       -2.20823099       -1.62987567
 C            0.43533467       -1.59792723       -2.34573515
 C           -0.71190992       -2.38415366       -2.41887865
 C           -1.98755499       -1.71764103       -2.63599566
 C            1.40018737        0.57810846       -2.92887779
 C            0.46210561       -0.49013107       -3.18187656
 C            0.95893131        3.03593864       -2.77736722
 C           -0.35022576        3.37902901       -2.23499322
 C            0.81960711        1.78816727       -3.49550877
 C           -2.25748804        1.88782103       -1.90975626
 C           -2.70535044        0.51622666       -2.11477799
 C           -1.95970372       -0.35653468       -2.91949392
 C           -0.81075057        0.11933528       -3.54263343
 C           -1.31365693        2.43418399       -2.76775199
 C           -0.60175563        1.54768330       -3.66765068
