58
Modified xyz file
 C            1.06625714       -0.10991943        4.25332044
 C            2.33308064       -0.41352950        3.63145768
 C            2.22101939       -1.75395138        3.07200630
 C            0.23733842       -1.29735337        4.11159084
 C            0.80512929       -2.05249008        3.01532417
 C           -1.12385297       -0.83811219        3.99099096
 C            0.28538312        0.98530029        3.71795916
 C           -1.08408125        0.61890002        4.00353430
 C            0.61509083        1.50328011        2.45941430
 C            2.79529668        0.43956600        2.55649457
 C            1.93626027        1.39036053        1.99602680
 C            2.97609120       -1.76411140        1.84113927
 C            3.53375967       -0.43227224        1.66639683
 C            2.28593572       -2.08346717        0.61112416
 C            0.15250775       -2.06236448        1.77495820
 C            0.89673496       -2.23548131        0.59637412
 C           -1.87458769       -1.21149701        2.81164113
 C           -1.21656646       -1.74981231        1.69879193
 C           -2.11860636        1.07570297        3.10739732
 C           -2.78164319       -0.11165274        2.59587025
 C           -0.39620522        1.98066940        1.60146183
 C           -1.73735186        1.85905014        1.94959450
 C           -0.09048670        2.32597218        0.28431327
 C            2.27125459        1.91575664        0.74943687
 C            1.23823607        2.53029828       -0.06174498
 C            3.51152738       -0.13449930        0.24765909
 C            2.90020760       -1.27216310       -0.42161821
 C            3.12162819        1.13578265       -0.14530628
 C            2.17114955       -1.05241481       -1.58149427
 C            0.25540548       -2.16458407       -0.64038743
 C            1.00827200       -1.79553774       -1.76287757
 C           -1.83594211       -1.65820166        0.44237026
 C           -1.13798341       -2.10525979       -0.68600550
 C           -3.15431001        0.17231956        1.23560369
 C           -2.68182743        1.50815884        0.91119199
 C           -2.94445975       -0.80398381        0.27873490
 C           -1.07566821        2.25620631       -0.71641918
 C           -2.34822267        1.74966346       -0.41937407
 C           -0.71782325        2.44253026       -2.05557636
 C            1.64846606        2.39792829       -1.44623150
 C            2.60336094        1.30434564       -1.48904200
 C            2.29420097        0.17342669       -2.24183938
 C            0.68588406        2.46543652       -2.43949193
 C            1.59217096        0.36001499       -3.43027081
 C            0.83891542        1.59381448       -3.59328087
 C            0.42873802       -1.80563816       -3.02281305
 C            0.76765179       -0.72742377       -3.93269708
 C           -1.78255461       -2.13099294       -1.92248143
 C           -0.99209435       -2.05325568       -3.13822021
 C           -3.29639891       -0.42019966       -1.00367500
 C           -2.99183559        0.95370960       -1.37055797
 C           -2.92663642       -1.26954736       -2.10774363
 C           -1.44942440        1.73959590       -3.10023326
 C           -0.48616191        1.25110064       -4.07572815
 C           -0.47329117       -0.15763872       -4.43060776
 C           -1.55871445       -1.00709631       -3.97946874
 C           -2.54174147        0.95565505       -2.74977102
 C           -2.65848237       -0.41009396       -3.24722148
