58
Modified xyz file
 C            1.56182696        0.06776148        4.00038193
 C            0.70219782       -1.08290925        3.79067306
 C            1.29109696       -1.89247033        2.74071924
 C            2.55185309        0.07940027        2.93682061
 C            2.45097387       -1.17673917        2.22423011
 C            2.38252886        1.30130876        2.17933461
 C            0.74810006        1.25862927        3.84988415
 C            1.40153346        2.11763385        2.87988475
 C           -0.65585375       -0.60794371        3.61719999
 C           -0.62202357        0.84638856        3.58653805
 C           -1.47588240       -1.27967293        2.72806644
 C            0.45824279       -2.54839875        1.83405490
 C           -0.92298000       -2.34765912        1.90182342
 C            1.02206962       -2.98042676        0.63659009
 C            2.66517902       -1.19039192        0.85048200
 C            2.23012448       -2.32133350        0.16922089
 C            2.33464117        1.21140772        0.78909185
 C            2.74810506        0.02895516        0.16178939
 C            1.62085317        2.16673656        0.05740260
 C            0.59873816        2.96458356        2.13560299
 C            0.89764833        3.14751742        0.72872223
 C           -1.34508873        1.54558418        2.61760761
 C           -0.84072014        2.78500570        2.21261234
 C           -2.39578090       -0.51894753        1.90427593
 C           -2.27728954        0.86477317        1.81592431
 C           -1.73015975       -2.41984125        0.69193112
 C           -2.65230137       -1.29172607        0.69768592
 C            0.17943816       -3.22334602       -0.52354238
 C           -1.15459557       -2.81875882       -0.50815873
 C            2.22538727       -2.33739466       -1.28061686
 C            1.00179808       -3.00659105       -1.70743319
 C            2.86839507        0.02360814       -1.22754038
 C            2.68636547       -1.21902299       -1.96040858
 C            1.36661164        1.94105440       -1.29522471
 C            2.20850168        1.07505346       -1.98102454
 C            0.09066954        2.20132147       -1.80902762
 C           -0.31104727        3.66529103        0.11427521
 C           -1.39969790        3.46470920        1.06232281
 C           -0.73059246        3.11788561       -1.16222279
 C           -2.89124441        1.50068061        0.73824482
 C           -2.49212991        2.84053298        0.35532001
 C           -2.13886667        2.80659917       -1.05378683
 C           -2.94319689       -0.63419912       -0.49823903
 C           -3.12635741        0.75122694       -0.48745282
 C           -2.59317484        1.54039290       -1.59066242
 C           -1.77876075       -2.44449180       -1.69372340
 C           -2.61455406       -1.25371242       -1.70536521
 C            0.39823265       -2.66647313       -2.91245501
 C           -1.03922967       -2.47897805       -2.94598457
 C            2.13467753       -0.89247942       -3.26277390
 C            1.76513752        0.51377747       -3.24452572
 C            0.99475005       -1.64354900       -3.75609336
 C           -0.48318190        1.30582820       -2.71803321
 C           -1.81307965        0.89093975       -2.53888688
 C           -2.15783221       -0.42722160       -2.80889386
 C           -1.31078059       -1.23945691       -3.65753039
 C            0.35830768        0.60783153       -3.58300370
 C           -0.04758293       -0.68828320       -4.09610332
