58
Modified xyz file
 C            1.01328799       -0.02905428        3.92050886
 C            2.26957557       -0.39728624        3.30357300
 C            2.15732064       -1.77724864        2.85685994
 C            0.17140729       -1.21485927        3.92843339
 C            0.76885256       -2.17122804        3.01913491
 C           -1.18139048       -0.78213900        3.68397604
 C            0.23640526        1.04369130        3.32379787
 C           -1.15074238        0.65715215        3.45371615
 C            0.67211793        1.62300575        2.13119924
 C            2.73330956        0.38302227        2.17728480
 C            2.02104905        1.50833581        1.77072644
 C            2.75845663       -1.87261632        1.53510730
 C            3.18715140       -0.53711736        1.14981313
 C            2.14534329       -2.67737358        0.58900685
 C            0.06809398       -2.62039480        1.89743766
 C            0.81579042       -3.19579801        0.87173343
 C           -1.90707148       -1.36612498        2.57570617
 C           -1.24690346       -2.17889430        1.64847890
 C           -2.05224480        0.92805957        2.35432052
 C           -2.76359471       -0.30767014        2.08464555
 C           -0.26753114        2.08173198        1.19125877
 C           -1.61314026        1.68574767        1.27262653
 C            0.16795155        2.82027796        0.08592073
 C            2.45030868        2.10657200        0.59453487
 C            1.53626797        2.94876735       -0.14611416
 C            3.08482088       -0.11515385       -0.17485520
 C            3.12776522        1.26045848       -0.37767808
 C            2.14423089       -2.24863618       -0.79692907
 C            2.38815407       -0.91126203       -1.09689487
 C            0.19286577       -3.48808200       -0.39814076
 C            1.03831181       -2.92588224       -1.44425198
 C           -1.84063836       -2.36470471        0.38873849
 C           -1.15460446       -3.02409301       -0.62984525
 C           -3.33962692       -0.46327788        0.83896957
 C           -2.98067248       -1.63197332        0.05327056
 C           -2.40671317        1.69693765        0.12405906
 C           -3.33050716        0.66850583       -0.07162591
 C           -0.74090596        3.15322993       -0.92009362
 C           -2.02762017        2.48366365       -0.95943019
 C           -0.28908587        3.28723917       -2.29651595
 C            2.04438441        2.98768966       -1.50814624
 C            2.84341746        1.78864213       -1.69353708
 C            1.10489459        3.04984839       -2.60552010
 C            1.72377260       -0.31688747       -2.18123013
 C            2.13247526        0.93824098       -2.62073337
 C            1.18715172        1.78253508       -3.32302133
 C            0.18385059       -2.16932976       -2.33868206
 C           -1.18685675       -2.48391896       -1.98066785
 C            0.51518662       -0.85355903       -2.64916470
 C           -3.21907404       -1.29452763       -1.34167997
 C           -3.50882497        0.12929936       -1.40550306
 C           -2.18688714       -1.58622783       -2.32017181
 C           -2.23042966        1.98422197       -2.31767626
 C           -1.06363444        2.35603373       -3.09295311
 C           -0.16417247        1.29809243       -3.51684989
 C           -0.47810921       -0.01349844       -3.16858345
 C           -2.73008646        0.70092358       -2.48378008
 C           -1.82290328       -0.33310650       -2.96456318
