58
Modified xyz file
 C            1.18222467       -0.05942703        4.75044384
 C            0.48689994       -1.27873355        4.38351798
 C            1.48242080       -2.19549063        3.87035479
 C            2.50107481       -0.10592728        4.13360585
 C            2.65903140       -1.41105647        3.52653472
 C            2.63038252        1.06185638        3.29066918
 C            0.46002960        1.05626759        4.16370809
 C            1.42112451        1.85894122        3.44986994
 C           -0.64047526       -0.91690702        3.53485528
 C           -0.67147139        0.53007390        3.42034742
 C           -0.93465616       -1.67369966        2.40122644
 C            1.14320542       -2.98142174        2.70620481
 C           -0.14859742       -2.78172023        2.07407649
 C            2.83893654       -1.51159001        2.08314334
 C            2.14459722       -2.71022754        1.68391843
 C            2.83997052        0.88860444        1.86000468
 C            2.73329508       -0.37357946        1.27854391
 C            1.05574071        2.32868723        2.13188880
 C            2.14298215        1.98647236        1.23963601
 C           -1.00562283        1.08336306        2.18294743
 C           -0.23965850        2.13019759        1.65058167
 C           -1.68810214       -1.08667537        1.38225707
 C           -1.77043615        0.31120817        1.30867992
 C           -1.90419112       -1.82881709        0.22244010
 C            0.07649741       -3.06511621        0.67302386
 C            1.45678588       -2.70723719        0.41270138
 C           -0.85291387       -2.61544366       -0.24422146
 C            2.25109410       -0.47579212       -0.04163158
 C            1.68485237       -1.67658449       -0.49571225
 C            1.81025502        1.89661476       -0.09475300
 C            2.03330618        0.69920958       -0.78033078
 C           -0.44430622        2.47024791        0.31089200
 C            0.70151955        2.62653085       -0.47510311
 C           -2.25314021        0.90403266        0.14010995
 C           -1.62887423        2.06944263       -0.31411361
 C           -2.79154818       -1.32017772       -0.72016401
 C           -2.99581311        0.11769620       -0.74118779
 C           -2.63859189       -1.75462834       -2.10077652
 C           -0.37401011       -2.33604293       -1.51487883
 C            0.83651416       -1.63591795       -1.60244887
 C           -1.32212049       -2.19958086       -2.51532557
 C            1.53056689        0.61742235       -2.09009439
 C            0.96102036       -0.59081423       -2.51719287
 C            0.55779316        2.83956535       -1.82870996
 C            1.12686633        1.82032823       -2.68750149
 C           -1.87979664        2.54549382       -1.60309420
 C           -0.76612832        3.12450180       -2.32717601
 C           -3.16695287        0.52710133       -2.12680594
 C           -3.02614223       -0.65660438       -2.96384405
 C           -2.63665486        1.73907013       -2.54670484
 C           -0.96818314       -1.48704033       -3.72382724
 C            0.21752284       -0.65480698       -3.70032129
 C           -2.09766809       -0.64264638       -4.08201141
 C            0.35497402        1.81734320       -3.91485008
 C           -0.80995949        2.66633779       -3.70251533
 C           -1.98866873        1.83647351       -3.85068006
 C           -0.11217042        0.55392824       -4.42993246
 C           -1.56463013        0.62669455       -4.53027439
