58
Modified xyz file
 C            1.59993369       -0.02395334        3.85592655
 C            0.76320733       -1.20158875        3.71570459
 C            1.34741071       -2.04819735        2.69200587
 C            2.63879605       -0.09465800        2.84244383
 C            2.53116568       -1.37084773        2.17707697
 C            2.55419095        1.09556307        2.03149666
 C            0.77695730        1.13677657        3.56506525
 C            1.41058544        1.87214256        2.49334393
 C           -0.60409402       -0.75792244        3.54650725
 C           -0.58421042        0.68688965        3.36617832
 C           -1.44172641       -1.51294487        2.74148565
 C            0.51310055       -2.71780531        1.79378695
 C           -0.87276549       -2.53811829        1.87064169
 C            1.06869979       -3.16242232        0.59386277
 C            2.78713941       -1.44732174        0.81348875
 C            2.34016934       -2.60049732        0.17712365
 C            2.77277301        0.99548977        0.66057193
 C            2.96570088       -0.26441298        0.06815623
 C            2.34553665        2.06450680       -0.12473644
 C            0.60968731        2.49028678        1.53950198
 C            1.21853569        2.85392902        0.34150035
 C           -1.32781332        1.24719214        2.32989078
 C           -0.77717301        2.29049688        1.56764349
 C           -2.48360402       -0.83591031        1.99075675
 C           -2.44394628        0.55023814        1.85656180
 C           -1.66615997       -2.56098450        0.64820445
 C           -2.78249880       -1.65163913        0.82566016
 C            0.23550743       -3.23907267       -0.59640907
 C           -1.01371174       -2.63351306       -0.57754809
 C            2.42476573       -2.72049790       -1.26179504
 C            1.09637322       -3.06719038       -1.74737239
 C            3.13968209       -0.33581977       -1.31787393
 C            2.89445211       -1.58301400       -2.01826299
 C            2.22965125        1.92116206       -1.56532646
 C            2.62348922        0.73106522       -2.15966814
 C            0.40911716        3.21193057       -0.81050622
 C            0.99391549        2.57113148       -1.98033394
 C           -1.56400824        2.92108200        0.60634283
 C           -0.97061398        3.27926326       -0.67121488
 C           -3.28211981        1.14527717        0.91984776
 C           -2.89823185        2.41742870        0.34324227
 C           -3.33798879       -1.04122938       -0.28719623
 C           -3.82402686        0.32118817       -0.14850839
 C           -1.40319173       -1.78521061       -1.62585883
 C           -2.63838749       -1.13500281       -1.55949489
 C            0.72405961       -2.09278614       -2.74764844
 C            1.91406238       -1.31648751       -3.05691616
 C            1.78762875        0.12456491       -3.18769312
 C           -0.49483148       -1.43004922       -2.63513120
 C            0.17151502        1.95955000       -2.92003087
 C            0.52793967        0.65211192       -3.44535549
 C           -0.63474055       -0.20764055       -3.29011852
 C           -1.82754078        2.75068272       -1.72056358
 C           -3.06982426        2.32721822       -1.09950670
 C           -3.59594330        1.00999642       -1.40563870
 C           -2.82668122        0.12511509       -2.26233025
 C           -1.27271687        1.98390401       -2.74133236
 C           -1.77719821        0.64055503       -3.00964816
