58
Modified xyz file
 C            1.47069598       -0.07820976        4.26223565
 C            0.72688050       -1.31396720        4.10683806
 C            1.65102304       -2.28665243        3.56777655
 C            2.63417626       -0.16382666        3.39441118
 C            2.80097979       -1.55312083        3.04605620
 C            2.45922458        0.80516682        2.32679090
 C            0.63723295        0.99373888        3.75851134
 C            1.39016619        1.69629843        2.73883781
 C           -0.49018032       -1.00863787        3.36515538
 C           -0.64214671        0.43463983        3.36154307
 C           -0.80308981       -1.71973658        2.20606368
 C            1.18180839       -3.16100676        2.51413296
 C           -0.09439501       -2.87916811        1.87917956
 C            2.93387582       -1.90236492        1.64808392
 C            2.18007783       -3.12650733        1.46335573
 C            2.51284740        0.40434352        0.98605325
 C            2.85464035       -0.91955870        0.65573256
 C            1.93869694        1.25358585        0.02237164
 C            0.65805292        2.31206299        1.73991776
 C            1.21848477        2.36764508        0.46911822
 C           -1.27279518        1.03614560        2.28021073
 C           -0.73056196        2.23123567        1.82195284
 C           -1.58857515       -1.11026432        1.22432158
 C           -1.94983660        0.23892726        1.35609058
 C           -1.75937973       -1.75658731       -0.00058509
 C            0.05852466       -3.23755828        0.47921808
 C            1.48807507       -3.30600032        0.20411312
 C           -0.76888262       -2.62821570       -0.45792495
 C            2.68509703       -1.35826842       -0.65428018
 C            1.96599048       -2.60680418       -0.89141142
 C            1.82437574        0.84020172       -1.31309438
 C            2.27896787       -0.41937494       -1.68168184
 C            1.03151187        1.56301172       -2.21156839
 C            0.59811208        3.20517073       -0.44964205
 C            0.54782904        2.81319382       -1.84443003
 C           -1.46491620        2.95762543        0.90004348
 C           -0.71794882        3.70593460       -0.09292863
 C           -2.63535621        0.87969626        0.31483972
 C           -2.53425130        2.26928219        0.19599692
 C           -2.67844516       -1.24879083       -0.90714737
 C           -3.10590554        0.13069381       -0.76593369
 C           -2.47404222       -1.51326236       -2.31911499
 C           -0.31223615       -2.50826544       -1.77375758
 C            1.05616076       -2.36543155       -1.99086491
 C            1.53599024       -1.17822552       -2.67225362
 C           -1.18033904       -2.01613098       -2.74220787
 C            0.46799480        0.92037041       -3.32001140
 C            0.65954238       -0.50763684       -3.50899147
 C           -0.65160743       -1.09480625       -3.73592927
 C           -3.15913122        0.72185608       -2.10015380
 C           -2.74813024       -0.29057097       -3.05464942
 C           -0.89653807        1.23912245       -3.72375376
 C           -1.60677883       -0.01398414       -3.90455081
 C           -0.72788454        3.25781183       -2.38564197
 C           -1.52489879        3.78053207       -1.29375385
 C           -2.65624249        2.88751144       -1.11434375
 C           -1.54475347        2.29640718       -3.09906692
 C           -2.72778689        2.03072382       -2.27927905
