58
Modified xyz file
 C            1.14807227       -0.08825330        3.92505722
 C            2.38506503       -0.39617037        3.24235418
 C            2.31504830       -1.77805756        2.79964525
 C            0.31475301       -1.28253449        3.88820327
 C            0.94524728       -2.22005374        2.98274869
 C           -1.03865143       -0.86196831        3.61233850
 C            0.34183613        1.01575296        3.43798558
 C           -1.03500053        0.59057154        3.55045456
 C            0.72877482        1.71082682        2.28987489
 C            2.75583324        0.40482260        2.09692527
 C            2.02610680        1.54282405        1.77051399
 C            2.88697104       -1.85438775        1.46387981
 C            3.13913416       -0.49193992        1.01828843
 C            2.32774106       -2.75095792        0.56869571
 C            0.25759316       -2.69752873        1.86773278
 C            1.02676082       -3.32100180        0.89000999
 C           -1.68344184       -1.34156728        2.40406948
 C           -0.97634647       -2.12715823        1.50337166
 C           -1.94680987        0.97490813        2.49871060
 C           -2.46729399       -0.24073010        1.88839993
 C           -0.25168087        2.38754581        1.54100857
 C           -1.60356169        2.02277333        1.65349113
 C            0.14343231        3.25991067        0.52736109
 C            2.34802734        2.13184872        0.55574161
 C            1.49738564        3.17324352        0.02876035
 C            2.84640581       -0.10779547       -0.29422425
 C            2.72857391        1.25634696       -0.54497251
 C            2.26944155       -2.38310981       -0.83032635
 C            2.25478508       -1.02750547       -1.17225890
 C            0.40711342       -3.70204642       -0.36034634
 C            1.31287291       -3.29383939       -1.42405562
 C           -1.41066486       -2.17016295        0.17383498
 C           -0.88945233       -3.14442235       -0.67250666
 C           -2.78604850       -0.19330641        0.53353482
 C           -2.21375401       -1.13419489       -0.34366529
 C           -2.45505322        2.22098831        0.57111563
 C           -3.14912665        1.05758652        0.04519797
 C           -0.72295751        3.47437744       -0.61937458
 C           -2.03871060        3.03632118       -0.55462114
 C            1.43305786        2.99701333       -1.41166735
 C            2.03015310        1.70981423       -1.72822835
 C            0.06819210        3.25020125       -1.82729546
 C            1.48589243       -0.57691793       -2.26401298
 C            1.30612174        0.79401755       -2.48120051
 C            0.50163928       -2.82335742       -2.51764065
 C           -0.89033562       -2.91273248       -2.09690174
 C            0.70216390       -1.47217887       -2.99637428
 C           -2.34925753       -0.97556572       -1.74005033
 C           -1.55567983       -1.73302781       -2.59664529
 C           -0.60186905       -1.03977642       -3.44875653
 C           -3.32673697        1.24633154       -1.37232423
 C           -2.68290858        2.49946944       -1.74207109
 C           -2.84777607        0.21628538       -2.26260232
 C           -0.45280297        2.48707788       -2.86484663
 C            0.21807720        1.24717683       -3.23688774
 C           -0.80210738        0.30945158       -3.68234770
 C           -1.88344382        2.25391822       -2.92600302
 C           -2.09080051        0.87084353       -3.31709809
