58
Modified xyz file
 C            1.14633511        0.16109716        4.14443055
 C            2.39097579       -0.19458884        3.50607013
 C            2.28598950       -1.60126299        3.15290455
 C            0.29092293       -1.01705069        4.09098541
 C            0.87006834       -1.89027045        3.09250584
 C           -1.06053222       -0.55169255        3.89521024
 C            0.37307375        1.24835830        3.58464710
 C           -1.01145452        0.90125587        3.83490013
 C            0.71169954        1.77919321        2.33646863
 C            2.75924079        0.49634832        2.28725609
 C            1.79704162        1.25571972        1.61516259
 C            3.06541638       -1.78425702        1.95608711
 C            3.53462315       -0.46697757        1.54324340
 C            2.41536070       -2.35173169        0.79512694
 C            0.25117620       -2.01847848        1.84061283
 C            1.01859871       -2.36713158        0.71764208
 C           -1.76991220       -0.97997155        2.71120918
 C           -1.08724779       -1.63046685        1.67637444
 C           -2.00982855        1.32531639        2.87039774
 C           -2.65753705        0.11702537        2.37951795
 C           -0.24521684        2.54143049        1.67668994
 C           -1.65919888        2.31208614        1.95821801
 C           -0.11058160        2.78174923        0.25540870
 C            1.82000448        1.32910904        0.20594520
 C            0.84845637        2.08344584       -0.47165762
 C            3.45688769       -0.43941455        0.10217676
 C            3.15179379       -1.79782079       -0.31615661
 C            2.77795817        0.60149234       -0.52371260
 C            2.62791486       -1.96771784       -1.58173278
 C            0.43085295       -2.38329709       -0.55290495
 C            1.25886292       -2.44764527       -1.68042187
 C           -1.65902931       -1.62402777        0.40162603
 C           -0.91691682       -2.04588006       -0.70416434
 C           -3.22874470        0.12276235        1.11876853
 C           -2.86228638       -0.94148730        0.20550655
 C           -2.37513608        2.38911447        0.69750532
 C           -1.45089432        2.92830322       -0.28684721
 C           -3.23157513        1.35197564        0.33957558
 C           -1.65521987        2.66187817       -1.63155543
 C            0.69609297        1.97200070       -1.85831634
 C           -0.50419191        2.35401238       -2.45842001
 C            2.64930088        0.49434697       -1.90509192
 C            2.72184171       -0.83762835       -2.48440565
 C            1.59485545        1.21020403       -2.59314786
 C            0.75875090       -2.01568397       -2.97521940
 C            1.64881947       -0.96739163       -3.44822621
 C            1.10467248        0.35796916       -3.67284803
 C           -1.47283666       -1.95459556       -1.98483608
 C           -0.60526605       -1.84599421       -3.14550692
 C           -3.22406828       -0.48706662       -1.12160811
 C           -3.33975813        0.96817133       -1.05938621
 C           -2.72270252        1.75426853       -2.02719843
 C           -2.61898539       -1.08849794       -2.21374286
 C           -0.99092476        1.60391521       -3.60265837
 C           -0.22419792        0.46061106       -4.06064283
 C           -1.07244892       -0.71733081       -3.93893701
 C           -2.33675284        1.14915023       -3.29011958
 C           -2.35414194       -0.29695085       -3.40270831
