58
Modified xyz file
 C            1.12373332        0.07818537        3.95413160
 C            2.37607894       -0.28799531        3.34295226
 C            2.30799186       -1.71303682        3.04933140
 C            0.31242783       -1.12953470        4.02320014
 C            0.90772540       -2.07954125        3.10592955
 C           -1.05806311       -0.72975267        3.80739174
 C            0.31091056        1.08861359        3.31020791
 C           -1.05394719        0.70713171        3.58403852
 C            0.62815671        1.53428379        2.02203755
 C            2.76293815        0.37162003        2.11352574
 C            1.84783086        1.17756932        1.42676527
 C            3.02574193       -1.92386987        1.81442487
 C            3.49371877       -0.62262168        1.36466057
 C            2.32495357       -2.52648792        0.69845421
 C            0.23396232       -2.41129764        1.92411739
 C            0.97091744       -2.83040878        0.79942742
 C           -1.78912292       -1.32349716        2.70619860
 C           -1.15708662       -2.20815858        1.83793371
 C           -2.03789711        0.98465976        2.56788407
 C           -2.62436321       -0.27732026        2.14363092
 C           -0.38353700        2.09729065        1.23069454
 C           -1.73429868        1.90218522        1.57970914
 C           -0.05852930        2.61389351       -0.03192468
 C            2.02998258        1.39149900        0.05280266
 C            1.16116045        2.25722075       -0.62716697
 C            3.36979030       -0.59659602       -0.07119284
 C            2.79910002       -1.86319072       -0.50313410
 C            2.89134465        0.54956931       -0.67772321
 C            1.99814792       -1.86871193       -1.65031669
 C            0.31705108       -3.15831612       -0.38140697
 C            0.80602988       -2.60133659       -1.63689377
 C           -1.83859928       -2.52798979        0.67059205
 C           -1.12657719       -3.14876930       -0.42184718
 C           -3.06343400       -0.38864636        0.81985245
 C           -2.76813398       -1.55622829        0.10737336
 C           -2.69733600        2.02151842        0.59540600
 C           -3.30454893        0.79215274        0.10912405
 C           -1.05802483        3.24101008       -0.78449168
 C           -2.43158877        2.87324115       -0.53669784
 C           -0.94213469        3.32640767       -2.22515907
 C            1.39401039        2.52400676       -1.98112671
 C            0.31021706        2.96022234       -2.83631757
 C            2.71038539        0.44025703       -2.04366941
 C            2.11895160       -0.79371598       -2.53766459
 C            2.11611465        1.54348044       -2.75604350
 C            0.03371664        1.86293194       -3.75340257
 C            0.97440676       -0.40289285       -3.34133743
 C            1.17736421        0.98246701       -3.71444377
 C           -0.34998584       -2.10944377       -2.37664528
 C           -1.53924930       -2.49987805       -1.65623649
 C           -2.50565036       -1.47914189       -1.32466498
 C           -0.28717618       -0.85215969       -2.96377289
 C           -3.13974265        0.80007725       -1.33358255
 C           -2.90649655        2.17657979       -1.72146557
 C           -1.96187361        2.44643354       -2.77953920
 C           -1.26113369        1.33065924       -3.38145118
 C           -2.41522381       -0.22994262       -1.92530085
 C           -1.34110643        0.06531521       -2.78717817
