58
Modified xyz file
 C            1.13098719       -0.10097149        4.08163660
 C            2.34938706       -0.33759950        3.33191042
 C            2.20517969       -1.61801703        2.65542265
 C            0.27280813       -1.25962421        3.89171248
 C            0.83505208       -2.04963099        2.80867911
 C           -1.08538766       -0.78036293        3.76269550
 C            0.34042140        1.08471660        3.79614142
 C           -1.04909922        0.67346633        3.70675766
 C            0.81595955        2.03395452        2.89884504
 C            2.77645918        0.63858778        2.34346979
 C            2.09141039        1.83674191        2.21651681
 C            2.72010181       -1.46620992        1.31767997
 C            3.15333388       -0.08804414        1.14552673
 C            2.05587447       -2.06791356        0.26033312
 C            0.06917254       -2.29499533        1.66509180
 C            0.69862976       -2.41516896        0.40936864
 C           -1.86285355       -1.23080700        2.62978423
 C           -1.32332052       -2.15682681        1.74074525
 C           -1.84376019        1.09298993        2.55894448
 C           -2.54652994       -0.07619169        2.07427285
 C           -0.10132259        2.62263587        1.93620494
 C           -1.30057725        1.97577372        1.63573892
 C            1.98310600        2.44974904        0.90415805
 C            0.71076568        3.15768649        0.86070859
 C            3.00399689        0.49525712       -0.11556991
 C            2.43227646        1.77181517       -0.23234864
 C            2.53631832       -1.73670287       -0.99756281
 C            2.98902376       -0.37169635       -1.21095321
 C            1.81582076       -2.16499448       -2.16934730
 C           -0.06588282       -2.77005233       -0.71552108
 C            0.46540102       -2.64770321       -2.00010370
 C           -2.08872417       -2.43273754        0.61849156
 C           -1.44294826       -2.90779236       -0.58568065
 C           -2.92516047       -0.14435470        0.73886158
 C           -3.05334909       -1.42713907        0.20887670
 C           -1.75832688        1.95016102        0.31629220
 C           -2.61002911        0.92211431       -0.11774878
 C            0.11666593        3.38901689       -0.36833843
 C           -1.20788517        2.83982115       -0.61000682
 C            2.03615689        2.24735810       -1.48334235
 C            0.90698402        3.15932116       -1.56255615
 C            2.47805319        0.06862768       -2.49752231
 C            1.77884214       -1.04992374       -3.10418067
 C            1.93654914        1.33679472       -2.60947030
 C           -0.33459617       -2.04063678       -3.05296869
 C            0.39964536       -0.87617378       -3.52600199
 C           -2.30489562       -2.54099896       -1.70256012
 C           -3.30468924       -1.60880835       -1.20352982
 C           -1.70971873       -1.96149024       -2.89346678
 C           -2.94751939        0.84206373       -1.47220929
 C           -3.29829131       -0.44167975       -2.05510440
 C           -2.37321614       -0.69482631       -3.14943474
 C           -1.31684714        2.56778203       -2.03367045
 C            0.01324742        2.68056946       -2.60328169
 C            0.61624490        1.50410818       -3.20436544
 C           -0.18368147        0.38945478       -3.45901435
 C           -2.12696810        1.52667672       -2.45293550
 C           -1.56829483        0.50282995       -3.32607074
