58
Modified xyz file
 C            1.29534539       -0.19161876        3.86226884
 C            2.48892936       -0.50077468        3.10724190
 C            2.33560450       -1.83796163        2.55814760
 C            0.43207262       -1.36235190        3.82227371
 C            0.97838180       -2.27699100        2.83768563
 C           -0.92588116       -0.89974124        3.65751537
 C            0.49970936        0.95468550        3.46170132
 C           -0.89200217        0.54803908        3.52036860
 C            0.91117839        1.74940187        2.39162575
 C            2.85989429        0.37856264        2.01894672
 C            2.19215696        1.58412105        1.83816547
 C            2.78970594       -1.81158220        1.17703640
 C            3.11847655       -0.43446551        0.84283543
 C            2.11125820       -2.57959852        0.24775512
 C            0.18819628       -2.72564462        1.77676754
 C            0.84227577       -3.18012932        0.62947318
 C           -1.70260054       -1.41974357        2.55275094
 C           -1.18438515       -2.42071511        1.73171291
 C           -1.76584231        0.91006533        2.41637239
 C           -2.39371235       -0.30215074        1.92963294
 C           -0.06923756        2.42834635        1.66107656
 C           -1.32255079        1.83521802        1.48790304
 C            0.32317666        3.44051205        0.79341663
 C            2.49937532        2.27095063        0.66936648
 C            1.67521406        3.39678713        0.28277221
 C            2.78424034        0.09293296       -0.40841543
 C            2.76357963        1.48060190       -0.52680778
 C            1.94116571       -2.06010177       -1.09417611
 C            2.05696743       -0.68772316       -1.31767948
 C            0.09861641       -3.42217472       -0.59133373
 C            0.83988569       -2.79678549       -1.68440269
 C           -1.92297669       -2.72158688        0.58863199
 C           -1.28463158       -3.34930913       -0.55370292
 C           -2.73055074       -0.41232028        0.58122156
 C           -2.82675558       -1.70428172        0.07369652
 C           -1.91806504        1.84757232        0.23026153
 C           -2.46591796        0.66157111       -0.29018938
 C           -0.54893001        3.79512810       -0.31372812
 C           -1.69398687        2.94623060       -0.59237972
 C            1.59657325        3.40055857       -1.16604793
 C            2.05041035        2.09652525       -1.62749839
 C            0.26554465        3.84830906       -1.52023548
 C            1.29224171       -0.08219119       -2.32858158
 C            1.21700444        1.31167187       -2.41897871
 C            0.16283883       -2.23853864       -2.75730580
 C            0.44729673       -0.86106797       -3.12734904
 C           -2.01262232       -2.94086559       -1.74194500
 C           -2.95901812       -1.90634135       -1.34844481
 C           -1.26848743       -2.44862393       -2.88552726
 C           -2.60798588        0.50090620       -1.68415233
 C           -0.78578214       -0.28070093       -3.63871883
 C           -2.77051595       -0.77305745       -2.22342540
 C           -1.86247807       -1.18539510       -3.28000880
 C           -1.75232528        2.77435411       -2.02408852
 C           -0.44442190        3.12661850       -2.55400572
 C            0.13182611        1.89935937       -3.07394843
 C           -2.07836025        1.46362446       -2.53970664
 C           -0.99911888        1.07188008       -3.43584024
