58
Modified xyz file
 C            1.01149088        0.10466670        4.03751816
 C            2.22114910       -0.18766801        3.30210897
 C            2.18932024       -1.60357701        2.98969445
 C            0.17797294       -1.09309847        4.01362091
 C            0.80693690       -2.02247324        3.10193178
 C           -1.18009595       -0.67744057        3.74448692
 C            0.18172561        1.20090495        3.59001982
 C           -1.18909041        0.77240246        3.78051240
 C            0.49767695        1.89015506        2.41663171
 C            2.46084243        0.51263340        2.05530983
 C            1.50819531        1.40770549        1.56830368
 C            2.83675774       -1.78101026        1.70833501
 C            3.04991840       -0.45052289        1.14358169
 C            2.33142022       -2.76621824        0.87495409
 C            0.14580077       -2.42490169        1.93888712
 C            0.90754589       -3.07688293        0.97338011
 C           -1.78949212       -1.07053879        2.48889671
 C           -1.04704104       -1.79093837        1.55313699
 C           -2.16819715        1.22544789        2.81685677
 C           -2.57987791        0.05991264        2.03799422
 C           -0.48431092        2.72518164        1.89131049
 C           -1.88715269        2.39705117        2.13209329
 C           -0.36718629        3.19636453        0.52619090
 C            1.44969249        1.65093596        0.18778242
 C            0.60874521        2.66044499       -0.30552716
 C            2.88378750       -0.26435400       -0.22597856
 C            2.25177039        0.89289501       -0.68658805
 C            2.65943549       -2.68128747       -0.53083537
 C            2.97098405       -1.37442579       -1.07047029
 C            0.38986983       -3.21517163       -0.37278317
 C            1.52654856       -3.19115899       -1.27741943
 C           -1.39289036       -1.69812276        0.19659729
 C           -0.76323348       -2.53202523       -0.74028805
 C           -2.81753880        0.20927838        0.67448514
 C           -2.38386074       -0.78313575       -0.20747683
 C           -2.60492569        2.63600915        0.89971604
 C           -1.71464706        3.34749511        0.00417563
 C           -3.10287556        1.48401792        0.17781441
 C           -1.98753681        2.88073033       -1.34441376
 C           -2.92058640        1.76412170       -1.23736338
 C            0.43127283        2.81347327       -1.67881797
 C           -0.91788265        2.78823291       -2.22450571
 C            2.16955907        1.08634032       -2.06364358
 C            1.28827765        2.09960182       -2.59492288
 C            2.38331365       -1.31765336       -2.39932976
 C            1.41996983       -2.40908466       -2.49727676
 C            2.06800491       -0.07470093       -2.92926803
 C           -0.98994327       -2.34921987       -2.10265359
 C            0.14778448       -2.14828797       -2.98799816
 C           -2.70429522       -0.64199565       -1.55576222
 C           -2.81306187        0.69382859       -2.11377142
 C           -2.04696143       -1.46915828       -2.54030296
 C           -0.93996584        1.78624035       -3.27636416
 C            0.44277050        1.47220882       -3.60142195
 C            0.86038091        0.08470040       -3.72491142
 C           -0.09575243       -0.92557594       -3.73401121
 C           -1.88860073        0.76972616       -3.23468202
 C           -1.50191789       -0.59207839       -3.56753913
