58
Modified xyz file
 C            1.57193535        0.14779823        4.24181019
 C            0.76305685       -1.03139424        4.00069476
 C            1.59146858       -1.96450459        3.27593288
 C            2.68024762        0.11102921        3.29987491
 C            2.75084110       -1.22997272        2.77841137
 C            2.49345458        1.20807740        2.36977071
 C            0.76815936        1.30618251        3.90656934
 C            1.55656001        2.11981344        3.00488028
 C           -0.48341400       -0.60320752        3.39246791
 C           -0.52885668        0.84914409        3.43215430
 C           -0.95335213       -1.24674253        2.25487234
 C            1.01709241       -2.65012908        2.13580329
 C           -0.29240289       -2.37521059        1.74166620
 C            2.77345670       -1.41594768        1.34225667
 C            2.04121253       -2.64423056        1.11550869
 C            2.37325529        0.96141043        0.99341904
 C            2.54266646       -0.33547746        0.48196174
 C            1.81827195        1.96209682        0.18610097
 C            0.86247651        2.98404003        2.18490683
 C            1.29582589        3.09937864        0.81226167
 C           -1.10825194        1.54856209        2.36978424
 C           -0.57806516        2.80772327        2.09089532
 C           -1.85548807       -0.56132549        1.44837953
 C           -1.75940795        0.83208567        1.34863967
 C           -2.54235969       -1.27776558        0.47909805
 C           -0.71135664       -2.88798352        0.51122169
 C           -1.98152416       -2.54629157        0.05370568
 C            1.64971195       -2.92583127       -0.17602289
 C            0.26316796       -3.29519305       -0.40739584
 C            2.16014913       -0.61911809       -0.83327949
 C            1.96932313       -1.95417533       -1.20189260
 C            1.49836314        1.68793283       -1.15234282
 C            1.68773863        0.40043903       -1.66488214
 C            0.76610721        2.61409669       -1.90281697
 C            0.23551909        3.84955447        0.17595381
 C           -0.98673541        3.50347567        0.89116697
 C           -0.00904711        3.63045434       -1.22549351
 C           -2.12284959        1.46727581        0.14617638
 C           -1.84090312        2.81583620       -0.04832616
 C           -1.40285485        3.23642431       -1.35880162
 C           -3.00681433       -0.58683959       -0.70622228
 C           -2.53204516        0.69821809       -0.95030747
 C           -2.32151973       -2.73269993       -1.34732962
 C           -3.06977934       -1.56244020       -1.77735825
 C            0.04033815       -3.12073230       -1.83496349
 C            1.12475555       -2.27697574       -2.33559948
 C           -1.25618580       -2.95454262       -2.30600302
 C            1.21316227        0.08626701       -2.94623688
 C            0.86576410       -1.28898805       -3.27022512
 C           -0.10474683        2.13096970       -2.95208041
 C           -1.45809279        2.26707733       -2.43069716
 C           -2.21040207        1.10884234       -2.25932055
 C            0.22625112        0.94553709       -3.58311948
 C           -2.58862673       -1.18570250       -3.08584550
 C           -1.50126242       -2.08609362       -3.44319124
 C           -0.40965728       -1.28179798       -3.96381164
 C           -2.11733571        0.16861900       -3.28434305
 C           -0.86699502        0.09295165       -4.01843674
