58
Modified xyz file
 C            1.48203107        0.03078947        4.18234419
 C            0.71272693       -1.13429269        3.78819978
 C            1.53107265       -1.93977279        2.90061565
 C            2.75317224       -0.01639212        3.47983612
 C            2.76166948       -1.21034742        2.65582893
 C            2.81015611        1.12505713        2.58568258
 C            0.76034980        1.20113656        3.71852239
 C            1.61874166        1.92686443        2.79953173
 C           -0.57706797       -0.68010794        3.29519788
 C           -0.54303972        0.77157721        3.23448541
 C           -1.14666693       -1.37115707        2.23479500
 C            0.90651629       -2.52886034        1.81012440
 C           -0.48514324       -2.50512421        1.75722445
 C            1.60129723       -2.58255340        0.60412462
 C            3.05461173       -0.81490549        1.28809918
 C            3.06770294        0.63756042        1.23897333
 C            2.42053620       -1.50353592        0.26332647
 C            2.42783821        1.28227615        0.18254747
 C            1.02308716        2.49568271        1.68354897
 C            1.71630041        2.44355705        0.47533127
 C           -1.06056352        1.41173603        2.11044185
 C           -0.36952562        2.52094343        1.62805487
 C           -2.01447899       -0.68768158        1.38304347
 C           -1.87870592        0.69585812        1.22759894
 C           -2.71552206       -1.41450548        0.43065708
 C           -1.10983210       -3.28923163        0.79452805
 C           -2.33131601       -2.79558735        0.18637871
 C            1.07386134       -3.37026139       -0.41232023
 C           -0.28776593       -3.85897708       -0.26150930
 C            1.23545440       -2.92796080       -1.78483497
 C            2.19925572       -0.84406768       -0.94572713
 C            2.07430404        0.54912963       -0.95707167
 C            1.72430730       -1.57927655       -2.02306528
 C            1.36254361        1.18696788       -1.98505413
 C            1.21378006        3.19066855       -0.57817843
 C            1.14107414        2.56380704       -1.88636815
 C           -0.95160751        3.27101049        0.61852640
 C           -0.05500902        3.85906622       -0.35873307
 C           -2.33438066        1.32418318        0.05807230
 C           -2.05516405        2.68243150       -0.11995283
 C           -2.99481690       -0.80613920       -0.85369124
 C           -2.80150317        0.55794710       -1.02284550
 C           -2.22689245       -2.98721741       -1.25214962
 C           -0.97940678       -3.67069364       -1.52562634
 C           -0.04755256       -3.06810809       -2.45658036
 C           -2.48694413       -1.70458249       -1.88160567
 C            0.82069692       -0.94774433       -2.96237041
 C            0.65258321        0.42975702       -2.93177272
 C           -0.36915856       -1.78317574       -3.05197935
 C           -1.62324595       -1.19678289       -2.85673520
 C           -2.56817936        0.98708792       -2.32727685
 C           -0.55010692        0.91218738       -3.44255397
 C           -1.75622048        0.14747987       -3.18764443
 C            0.02419143        3.17128539       -2.59093631
 C           -0.75254291        3.92978567       -1.62563291
 C           -2.02410656        3.24729641       -1.45892799
 C           -0.89864812        2.30927381       -3.28986481
 C           -2.17474816        2.35663894       -2.58463265
