58
Modified xyz file
 C            1.52507403       -0.04926551        4.11427963
 C            0.74757862       -1.24354750        3.83156513
 C            1.40641988       -1.95242221        2.74499130
 C            2.61605100       -0.00748557        3.16048204
 C            2.69799917       -1.31427061        2.53856247
 C            2.42810415        1.14465321        2.29154987
 C            0.67375676        1.09415100        3.85536245
 C            1.22705640        1.83150992        2.72872709
 C           -0.63704234       -0.84072653        3.66357300
 C           -0.69244832        0.61377262        3.75780900
 C           -1.39947252       -1.49305919        2.70330633
 C            0.65156693       -2.35722419        1.63901267
 C           -0.73634493       -2.35594034        1.73349505
 C            1.26484059       -2.47585390        0.38525464
 C            3.25306679       -1.37339044        1.27511978
 C            2.64231163       -2.25280273        0.30409004
 C            2.67288694        0.97771852        0.92954472
 C            3.45150582       -0.11954309        0.56580481
 C            1.78350654        1.53744280       -0.00434663
 C            0.35166028        2.33356901        1.77622688
 C            0.75117164        2.37773704        0.43893687
 C           -1.56105233        1.31790724        2.93466674
 C           -1.00873135        2.35505366        2.07974246
 C           -2.45291045       -0.77214352        2.00635051
 C           -2.54872478        0.60244156        2.14130403
 C           -1.53370932       -2.35109875        0.52612866
 C           -2.59277746       -1.36509352        0.69007269
 C            0.48372714       -2.53084563       -0.78687486
 C           -0.91514402       -2.46715044       -0.71237250
 C            1.09372373       -2.46787603       -2.04343015
 C            3.24204676       -1.87055474       -0.95606478
 C            3.59417594       -0.46167577       -0.83083538
 C            2.46384617       -2.01561991       -2.15959496
 C            1.84228075        1.16347195       -1.35940910
 C            2.80323312        0.25905204       -1.79970233
 C            2.41698176       -0.70993384       -2.79924894
 C            0.79408062        1.50216628       -2.22022666
 C           -0.09586855        2.98038772       -0.49256064
 C           -0.00203980        2.59255996       -1.88808226
 C           -1.96658010        2.58502022        1.02013655
 C           -2.82989339        1.41110575        0.96665386
 C           -1.51022598        3.12497952       -0.17043961
 C           -2.95452130       -0.58640940       -0.40767451
 C           -3.08015208        0.80901664       -0.26857343
 C           -1.65925873       -2.09875139       -1.83649474
 C           -2.75704325       -1.15748681       -1.66445965
 C            0.39022826       -1.82307114       -3.13220567
 C            1.10370316       -0.57997222       -3.39212562
 C            0.40923388        0.61719160       -3.24553587
 C           -0.99328937       -1.78240607       -3.09126821
 C           -2.84572667       -0.35143852       -2.86297314
 C           -0.90188093        0.62537765       -3.71771613
 C           -1.65409436       -0.61356142       -3.65012942
 C           -1.32323279        2.73261617       -2.46954671
 C           -2.26656798        2.83749251       -1.37263832
 C           -3.08684957        1.63956190       -1.39321015
 C           -1.80592941        1.69394997       -3.35118329
 C           -2.97030638        1.08071448       -2.72382563
