58
Modified xyz file
 C            1.49785554       -0.26865520        4.44023733
 C            0.67053272       -1.45739985        4.35019535
 C            1.25909234       -2.33634477        3.35401900
 C            2.59219400       -0.41493046        3.49553200
 C            2.47424199       -1.71367828        2.86208069
 C            2.61086513        0.76861627        2.65507018
 C            0.69658476        0.86329229        4.00636459
 C            1.46128227        1.59018464        3.01508471
 C           -0.63257094       -1.05259291        3.85359196
 C           -0.61130007        0.37745104        3.61932949
 C            0.21897694       -2.68403869        2.39877821
 C           -0.96320834       -1.91216091        2.73657738
 C            0.54870518       -2.81414482        1.04969980
 C            2.75977373       -1.81575077        1.50905029
 C            1.87059175       -2.58751141        0.65474495
 C            2.94357850        0.64803160        1.30550488
 C            3.13844376       -0.62370580        0.75749735
 C            2.60275447        1.70314978        0.46287385
 C            0.77791944        2.23398343        1.98954359
 C            1.52763057        2.58983579        0.87477455
 C           -1.15676315        0.85389816        2.43155958
 C           -0.59115056        1.97961747        1.82953133
 C           -1.68990799       -1.37811438        1.68504867
 C           -1.94245454       -0.00249321        1.65421359
 C           -0.47270781       -2.69114501        0.09972200
 C           -1.66578902       -2.06439092        0.47981069
 C           -0.14122411       -2.79074066       -1.25162607
 C            2.15032213       -2.17446028       -0.70964967
 C            2.80100036       -0.87516934       -0.64013556
 C            1.18582828       -2.38590736       -1.67836269
 C            2.44534716        1.47241622       -0.96292756
 C            2.33943802        0.16872294       -1.43850442
 C            0.86230947        3.07579233       -0.31973130
 C            1.54850058        2.49899373       -1.46670665
 C           -1.27265117        2.55961127        0.76371121
 C           -0.52187401        3.17170761       -0.32216201
 C           -2.63399924        0.52092726        0.55752290
 C           -2.39353414        1.84255828        0.17615432
 C           -2.60338543       -1.69430301       -0.47496275
 C           -3.18840073       -0.37120036       -0.36099678
 C           -1.08122096       -2.34981260       -2.26977371
 C           -2.34912271       -1.94474376       -1.88046812
 C            1.01070892       -1.39146566       -2.72011128
 C            1.51693007       -0.10407308       -2.53746307
 C           -0.33105944       -1.57286915       -3.25119669
 C            0.84393872        2.25593120       -2.63586664
 C            0.96818265        0.95300966       -3.26329201
 C           -1.25425184        2.95149237       -1.55929549
 C           -2.47844943        2.23422021       -1.22521813
 C           -0.55471071        2.64368238       -2.72286903
 C           -3.52961815        0.07757203       -1.70002416
 C           -3.04617509       -0.92216458       -2.64115311
 C           -3.06562066        1.37561817       -2.14818824
 C           -0.93942540       -0.52680529       -3.93686215
 C           -0.23503583        0.73731036       -4.05254716
 C           -1.17269373        1.80453787       -3.73403936
 C           -2.34317820       -0.23005506       -3.70477086
 C           -2.46204602        1.19866322       -3.45891977
