58
Modified xyz file
 C            1.09159260       -0.08675466        3.93423498
 C            2.33220021       -0.42190810        3.27176191
 C            2.25507502       -1.82080036        2.88332890
 C            0.25536557       -1.27840927        3.93142709
 C            0.86622196       -2.22183971        3.01944191
 C           -1.10289821       -0.85643954        3.68317157
 C            0.28942233        0.99379268        3.39987791
 C           -1.09280911        0.59295662        3.54971508
 C            0.66038472        1.62175852        2.21372765
 C            2.71475842        0.32510811        2.09134651
 C            1.88388819        1.32785568        1.58929371
 C            2.88909587       -1.95432399        1.58195995
 C            3.30674961       -0.62225810        1.16505197
 C            2.30450935       -2.80602167        0.65274477
 C            0.18298642       -2.65170331        1.87999438
 C            0.94018031       -3.26031874        0.88186688
 C           -1.79081586       -1.37867220        2.52056288
 C           -1.09816928       -2.14624253        1.58036663
 C           -2.02330017        0.93357670        2.48769276
 C           -2.64660030       -0.30529203        2.05508274
 C           -0.31522721        2.31774137        1.50233517
 C           -1.63876070        1.85477502        1.51547032
 C            0.10455195        3.16197330        0.48487880
 C            2.12339314        1.80090239        0.29445697
 C            1.32924528        2.82399619       -0.21391414
 C            3.32899592       -0.29809131       -0.18517099
 C            2.82502805        1.00017201       -0.60570042
 C            2.43424694       -2.51848225       -0.76602045
 C            2.90420956       -1.27737929       -1.17630044
 C            0.34516905       -3.52980211       -0.40640515
 C            1.28079842       -3.09062558       -1.43168783
 C           -1.63547440       -2.26733565        0.28785048
 C           -0.94355675       -2.94927990       -0.70471277
 C           -3.14178612       -0.37086990        0.76473859
 C           -2.68430731       -1.43971622       -0.10863953
 C           -2.41094188        1.94216958        0.35411065
 C           -3.17878890        0.84398240       -0.03225330
 C           -0.85887806        3.62044214       -0.49750042
 C           -2.13014330        2.93303465       -0.58111728
 C            1.03382646        2.84577611       -1.63893956
 C           -0.22741372        3.54937258       -1.80512380
 C            2.33201221        0.86286184       -1.96653248
 C            2.22786718       -0.56118976       -2.25230057
 C            1.33669445        1.72412967       -2.41492018
 C            0.54214103       -2.28513628       -2.38711719
 C           -0.86667311       -2.36815610       -2.03560114
 C            1.05628478       -1.06532765       -2.82106466
 C           -2.71567306       -0.93907576       -1.47811344
 C           -3.19647600        0.43689488       -1.42713445
 C           -1.70225607       -1.30494260       -2.36788369
 C           -2.39768573        2.67901272       -1.98840405
 C           -1.20691432        3.04122475       -2.74230613
 C           -2.80307512        1.34510235       -2.39998155
 C            0.42891004        1.24785946       -3.36192840
 C            0.18791779       -0.18265997       -3.45558836
 C           -1.24567105       -0.38730730       -3.31170144
 C           -0.84762235        1.91214044       -3.57327611
 C           -1.89180474        0.90774967       -3.43915125
