58
Modified xyz file
 C            1.59105221       -0.00376202        3.93751131
 C            0.75479245       -1.18088901        3.79000118
 C            1.36243787       -2.04504248        2.79447211
 C            2.67219185       -0.10319395        2.97365749
 C            2.55228068       -1.37611892        2.28642135
 C            2.67395123        1.10800168        2.18039257
 C            0.78852943        1.15163301        3.57850352
 C            1.44463188        1.82832314        2.47462970
 C           -0.60750459       -0.73715722        3.57955908
 C           -0.58145686        0.70667053        3.39156664
 C           -1.42432064       -1.49991995        2.75929273
 C            0.54939677       -2.73286929        1.89699804
 C           -0.84085096       -2.57279107        1.96069240
 C            1.13451972       -3.20246230        0.72503558
 C            2.82852158       -1.44096350        0.92094083
 C            2.28845069       -2.49601387        0.18956237
 C            3.08905549        1.02200317        0.86269629
 C            3.26028918       -0.29263795        0.25129925
 C            2.45227973        1.87167560       -0.12532397
 C            0.65361844        2.28901772        1.42495522
 C            1.20165612        2.42327628        0.14499333
 C           -1.32323405        1.26609031        2.35376187
 C           -0.73181819        2.26835391        1.57395059
 C           -2.41713897       -0.83046420        1.93689059
 C           -2.42040102        0.55807336        1.84988570
 C           -1.65996180       -2.71782321        0.76111314
 C           -2.58014555       -1.59686522        0.71314626
 C            0.29573587       -3.60171243       -0.38999281
 C           -1.08676295       -3.16989863       -0.41465680
 C            2.10435835       -2.36894632       -1.24815544
 C            0.93021226       -3.14374149       -1.61255838
 C            3.00529365       -0.14211713       -1.17598071
 C            2.69343993        1.26259379       -1.41688716
 C            2.32142691       -1.14190799       -1.86722040
 C            1.87328567        1.60915670       -2.47756541
 C            0.38303400        2.82226751       -0.91755037
 C            0.71935843        2.46151739       -2.22877438
 C           -1.50497409        2.94660175        0.64358375
 C           -0.91346681        3.25970157       -0.64655031
 C           -3.17492415        1.12864756        0.82968757
 C           -2.85426554        2.47636515        0.41163665
 C           -2.78751154       -0.90310370       -0.47713031
 C           -3.40298571        0.34117286       -0.37538712
 C           -1.30037938       -2.41679310       -1.64102547
 C           -0.08619513       -2.51795400       -2.43614399
 C           -2.00576750       -1.21032882       -1.60410667
 C            1.58116287       -0.81574377       -3.00448028
 C            1.46688558        0.57478060       -3.40834578
 C            0.28297376       -1.44189777       -3.22403548
 C           -0.32859815        2.07004062       -3.16563879
 C           -1.78710695       -0.25631734       -2.61347099
 C            0.08074345        0.81771438       -3.77054919
 C           -0.67585516       -0.37750838       -3.44669696
 C           -1.93924502        3.07762985       -1.65863790
 C           -3.13668206        2.58117320       -1.00753030
 C           -3.38151989        1.23871893       -1.50764301
 C           -1.65110683        2.19616205       -2.76963249
 C           -2.43138653        0.97958243       -2.56516625
