58
Modified xyz file
 C            1.49466262        0.08796585        4.18128097
 C            0.69924792       -1.12726785        4.16723234
 C            1.44963477       -2.13834521        3.44734033
 C            2.62907704       -0.11503089        3.29543008
 C            2.65702306       -1.51140004        2.93043056
 C            2.54927351        0.87044113        2.23180570
 C            0.68294727        1.15322291        3.62046666
 C            1.39767248        1.71467765        2.49599284
 C           -0.63228024       -0.78416432        3.70123996
 C           -0.64779877        0.63587061        3.38113400
 C           -1.30059320       -1.66129143        2.85582172
 C            0.80616196       -2.84246074        2.34840540
 C           -0.55926234       -2.70403977        2.15152034
 C            2.75412233       -1.84078908        1.52562051
 C            1.69146942       -2.77667994        1.19951006
 C            2.79606362        0.49683543        0.90770700
 C            3.05553533       -0.85197514        0.59483322
 C            2.35854530        1.36812664       -0.09999754
 C            0.66616796        2.15487600        1.40369775
 C            1.32927379        2.27153484        0.18978244
 C           -1.32706958        1.05772225        2.23997777
 C           -0.72541740        1.99952883        1.39194991
 C           -2.27552657       -1.12024807        1.92608451
 C           -2.35584607        0.25639219        1.74461000
 C           -1.08401028       -2.78314528        0.80008886
 C           -2.29203146       -1.97592019        0.75209424
 C            1.16992648       -2.74927665       -0.09650935
 C           -0.21969887       -2.77698919       -0.29211909
 C            3.00259969       -1.25361568       -0.73450683
 C            1.99975095       -2.24349353       -1.10010480
 C            2.69456409        1.10186558       -1.42404193
 C            3.04472283       -0.25395624       -1.77800067
 C            1.86382278        1.61997090       -2.49519252
 C            0.68674395        2.96252721       -0.83030787
 C            0.99025662        2.65844290       -2.21950602
 C           -1.44234581        2.48286505        0.29194908
 C           -0.74836870        3.15822116       -0.71787349
 C           -3.09441313        0.71689138        0.66461672
 C           -2.72012601        1.97499081        0.05111804
 C           -2.70221783       -1.42608998       -0.45927912
 C           -3.38465441       -0.21128899       -0.41847886
 C           -0.75778663       -2.48944857       -1.54490246
 C           -2.04628128       -1.81311918       -1.63060711
 C            1.45321138       -1.87079692       -2.39287076
 C            2.14898249       -0.68037676       -2.84184377
 C            1.37391055        0.47613421       -3.25196460
 C            0.08922707       -1.97068860       -2.60504540
 C           -2.00239872       -0.92433913       -2.78624679
 C            0.00433357        0.34815051       -3.48210590
 C           -0.62547388       -0.88052711       -3.25797401
 C           -0.25433145        2.72592976       -2.96493164
 C           -1.28126367        3.22716639       -2.06888272
 C           -0.76105976        1.50911704       -3.57488512
 C           -3.27313795        1.95817744       -1.29464669
 C           -3.55337187        0.57063534       -1.63026002
 C           -2.77186039        0.23036725       -2.80257288
 C           -2.51069415        2.53055413       -2.38239693
 C           -2.18961043        1.45756308       -3.31368615
