58
Modified xyz file
 C            1.48810669       -0.02653977        4.19663243
 C            0.68274425       -1.23204401        4.10639478
 C            1.52478379       -2.26423496        3.54404345
 C            2.64762293       -0.21484201        3.34157774
 C            2.70075001       -1.61266660        2.97975108
 C            2.57494128        0.77057711        2.28102771
 C            0.70921127        1.06678302        3.64246555
 C            1.47181649        1.66490266        2.57050665
 C           -0.55886597       -0.88610758        3.43026916
 C           -0.60380327        0.56230049        3.31688220
 C           -1.02787726       -1.65695417        2.35837819
 C            0.96678375       -3.11782939        2.51733517
 C           -0.35224562       -2.81873017        1.98020840
 C            2.75874672       -1.96364231        1.57331001
 C            1.89193221       -3.10593910        1.39665735
 C            2.76123978        0.39091198        0.95439962
 C            2.72981491       -0.96832507        0.59663463
 C            2.44906195        1.33616090       -0.02175824
 C            0.78007190        2.18320580        1.48280141
 C            1.46720245        2.29429501        0.27959277
 C           -1.25056552        1.09344506        2.21399783
 C           -0.61733002        2.07512036        1.44168081
 C           -1.91079669       -1.06530169        1.44682875
 C           -2.19636583        0.29625743        1.59658892
 C           -2.15900148       -1.69493772        0.21664951
 C           -0.30372020       -3.17015804        0.57486475
 C            1.10008809       -3.16860870        0.18569333
 C           -1.22189229       -2.59469215       -0.29505824
 C            2.35797632       -1.32270890       -0.70759557
 C            1.47010753       -2.39144571       -0.90764002
 C            2.71493003        0.99635005       -1.34354212
 C            2.56320872       -0.39234140       -1.72448125
 C            2.21003227        1.81807429       -2.42415121
 C            0.86968975        3.04350761       -0.72579968
 C            1.30373085        2.89617081       -2.10047331
 C           -1.30465732        2.58173988        0.32683797
 C           -0.57801849        3.16846965       -0.71805149
 C           -3.06590478        0.91843283        0.71978957
 C           -2.61534009        2.15052887        0.09355912
 C           -3.10023221       -1.14283754       -0.65216538
 C           -3.71950526        0.11447199       -0.28774797
 C           -2.80322728       -1.08830933       -2.07725922
 C           -0.85413869       -2.49202530       -1.63491414
 C            0.55426820       -2.33232711       -1.95353405
 C           -1.61619448       -1.64072916       -2.53010182
 C            1.73710423       -0.42753466       -2.92095003
 C            1.53973805        0.93809484       -3.36854550
 C            0.67138265       -1.30844008       -2.97455899
 C           -0.66816709       -0.80913294       -3.26443423
 C            0.11664262        2.73831154       -2.92129643
 C           -1.03883994        3.04276039       -2.09898826
 C            0.18610618        1.43297716       -3.55240301
 C           -0.89550898        0.56413548       -3.41125568
 C           -3.14265680        2.17009223       -1.25882567
 C           -3.85336808        0.92321736       -1.48554908
 C           -3.18083216        0.22341810       -2.56431838
 C           -2.21598241        2.35716475       -2.35369205
 C           -2.14479763        1.09750793       -3.08626780
