58
Modified xyz file
 C            1.37711462        0.13796403        4.13479858
 C            2.55453073       -0.03767207        3.31015444
 C            2.52991869       -1.39302378        2.78604381
 C            0.56849153       -1.06675030        4.01839210
 C            1.21845989       -1.95076018        3.06512690
 C           -0.80519211       -0.66475794        3.78043318
 C            0.51876104        1.27604061        3.88108554
 C           -0.84340106        0.78718430        3.74570652
 C            0.79042402        2.13273717        2.73876166
 C            2.77868649        0.85833345        2.18808177
 C            1.94536560        1.95962319        1.97055788
 C            2.98757168       -1.34885001        1.40910359
 C            3.18780247        0.04559958        1.05057611
 C            2.39111808       -2.19145627        0.48988878
 C            0.47731937       -2.49593640        2.01691579
 C            1.12683714       -2.83340375        0.82985072
 C           -1.55516200       -1.36839914        2.84998946
 C           -0.91318182       -2.38906743        2.03103081
 C           -2.45143313       -0.63723436        1.97349916
 C           -1.44520218        1.45013133        2.59711305
 C           -0.47669504        2.38558823        2.06495998
 C           -2.20689475        0.71074165        1.70647385
 C           -0.46041772        2.65520474        0.69957669
 C            1.98133224        2.55986441        0.71619716
 C            0.74699696        3.09288557        0.16732131
 C            2.88280462        0.49716137       -0.23370495
 C            2.64059169        1.85815155       -0.37232260
 C            2.29255242       -1.75855865       -0.88864657
 C            2.39501296       -0.40191724       -1.19875565
 C            0.36511517       -2.97105973       -0.40377076
 C            1.23282281       -2.54439962       -1.48863158
 C           -1.66385214       -2.47651389        0.78278863
 C           -2.76490800       -1.53040994        0.87347019
 C           -0.98490896       -2.62668790       -0.42552797
 C           -3.26277771       -0.97939706       -0.29284002
 C           -2.37340761        1.18260521        0.40563694
 C           -1.41792780        2.05919495       -0.14213655
 C           -3.22567722        0.46535215       -0.42753532
 C           -1.35153073        2.26651972       -1.53495603
 C            0.91581580        3.16187442       -1.26504509
 C            2.08920085        2.36778208       -1.60673053
 C           -0.16592220        2.71491355       -2.11052802
 C            1.83276544        0.06119726       -2.40013436
 C            1.68946517        1.42783142       -2.63001915
 C            0.43752557        1.92909609       -3.17226541
 C            0.65917213       -2.08826076       -2.65929985
 C            1.11793541       -0.82448870       -3.20961101
 C           -1.56155999       -2.15352892       -1.61066300
 C           -2.80119700       -1.50990165       -1.55909642
 C           -0.78705321       -2.09493723       -2.77278147
 C           -3.26554281        0.76196122       -1.84087008
 C           -2.27529200        1.66107371       -2.38393766
 C           -3.14800605       -0.50460645       -2.54990262
 C           -0.37186996        1.07054632       -3.90161053
 C            0.04398716       -0.31405749       -4.05081481
 C           -1.12096287       -1.15939653       -3.83554120
 C           -1.80078620        1.07600823       -3.63036276
 C           -2.27473552       -0.29773414       -3.68549266
