58
Modified xyz file
 C            1.12419185       -0.07298149        3.85436379
 C            2.30882716       -0.40093731        3.09179509
 C            2.20836658       -1.79848403        2.70950676
 C            0.29639038       -1.26934521        3.91639050
 C            0.83997893       -2.21107167        2.96142609
 C           -1.07877488       -0.85537719        3.77230149
 C            0.27599945        1.00611739        3.38993418
 C           -1.08610264        0.59510636        3.64991258
 C            0.54984838        1.63665593        2.17797773
 C            2.58862421        0.35078050        1.88623903
 C            1.75640259        1.39693307        1.49969729
 C            2.72623699       -1.92739953        1.35866330
 C            3.01892072       -0.58829489        0.86902155
 C            2.09787653       -2.81869413        0.50525343
 C            0.07146760       -2.65237259        1.88210176
 C            0.75318985       -3.27247554        0.83759978
 C           -1.84838386       -1.37600587        2.66017293
 C           -1.22169331       -2.13290261        1.66654058
 C           -2.10027342        0.93723589        2.67169136
 C           -2.74337871       -0.30606649        2.26820010
 C           -0.48564958        2.31362367        1.52292042
 C           -1.81162075        1.88854349        1.69453138
 C           -0.15954977        3.15828325        0.46376039
 C            1.90860569        1.89715140        0.20859600
 C            1.14761500        3.00732526       -0.14475111
 C            2.76078775       -0.26875788       -0.46246456
 C            2.44862615        1.05832494       -0.78037795
 C            2.12191978       -2.55272274       -0.91927890
 C            2.47886688       -1.28882316       -1.38351596
 C            0.06306956       -3.54719462       -0.40128577
 C            0.95485584       -3.19629052       -1.49467746
 C           -1.84192839       -2.23810806        0.40848355
 C           -1.20381328       -2.89832621       -0.63670230
 C           -3.34020037       -0.36610910        1.01948686
 C           -2.87144192       -1.36003266        0.06708897
 C           -2.71538754        2.01929561        0.64265782
 C           -3.53707253        0.87539424        0.29107891
 C           -1.11918870        3.37181469       -0.60960191
 C           -2.29542239        2.64114698       -0.59732249
 C            1.03879085        3.40974413       -1.53145428
 C           -0.37649395        3.44495518       -1.85566386
 C            2.45022567        1.44416818       -2.11923383
 C            1.69561916        2.60739435       -2.54003522
 C            2.08784077       -0.94840852       -2.67748011
 C            2.22191570        0.42573789       -3.12050028
 C            0.18570318       -2.46912768       -2.48982065
 C           -1.14077377       -2.24610068       -1.93719005
 C            0.80643678       -1.43483768       -3.17102016
 C           -2.85089922       -0.74600621       -1.25321539
 C           -3.33419577        0.60714151       -1.12340279
 C           -2.52857048        1.67677021       -1.66510754
 C           -1.77579768       -1.01346533       -2.09470475
 C           -0.60981560        2.41793642       -2.85415370
 C            0.67246101        2.14013428       -3.46480929
 C            0.99062740        0.77614687       -3.81337987
 C            0.02605523       -0.26188293       -3.50958146
 C           -1.48887738        1.37842203       -2.54276699
 C           -1.11103771        0.03631883       -2.75389497
