58
Modified xyz file
 C            1.63703680        0.24435747        4.14848466
 C            0.85966531       -0.97825445        4.22529936
 C            1.60576150       -2.00761326        3.52897532
 C            2.67712677        0.04462097        3.15060404
 C            2.69815604       -1.35739388        2.81431075
 C            2.45912665        1.00695317        2.08822459
 C            0.76156654        1.29277975        3.65927378
 C            1.41816059        1.91528756        2.53048997
 C           -0.49539913       -0.67815451        3.79117188
 C           -0.55455305        0.73013381        3.43220553
 C           -1.17825206       -1.59857240        3.01028658
 C            0.90723743       -2.85455601        2.57790288
 C           -0.47629357       -2.75265523        2.45575825
 C            2.58852626       -1.73610582        1.42001055
 C            1.72349480       -2.89953105        1.37696170
 C            2.44816771        0.60234613        0.74819457
 C            2.46236349       -0.76276589        0.42203026
 C            1.94934854        1.51359267       -0.18858340
 C            0.62133563        2.46504173        1.54280543
 C            1.18964344        2.59032452        0.28529981
 C           -1.23140336        1.12965019        2.27908596
 C           -0.75891299        2.25631250        1.60461264
 C           -2.09389631       -1.11402144        1.99421007
 C           -2.04410568        0.22012994        1.58907406
 C           -1.10328750       -3.07693904        1.18339647
 C           -2.21654007       -2.15834016        0.99435202
 C            1.13466072       -3.22678296        0.16739833
 C           -0.30675381       -3.42770267        0.09761230
 C            2.02772938       -1.16958426       -0.84293082
 C            1.50453775       -2.45587775       -1.00281920
 C            1.84894551        1.13476811       -1.52960173
 C            1.83072012       -0.22702766       -1.85472132
 C            1.49378123        2.09795074       -2.47703101
 C            0.54297319        3.42962362       -0.60904840
 C            0.79973624        3.28616889       -2.02587319
 C           -1.53914039        2.78234894        0.58130109
 C           -0.88546506        3.60066660       -0.42990785
 C           -2.58064229        0.57663056        0.34486077
 C           -2.45595246        1.88880712       -0.10504731
 C           -2.61100942       -1.80894678       -0.28851386
 C           -2.90462694       -0.41588094       -0.58035608
 C           -0.72842791       -3.07174114       -1.25047615
 C            0.46595063       -2.68378354       -1.98785358
 C           -1.91082552       -2.36278750       -1.43762358
 C            1.26988420       -0.66085509       -3.06036445
 C            0.36209729       -1.79051301       -3.04074164
 C            0.85080742        1.69998632       -3.71305239
 C            0.70155241        0.29120247       -3.99003985
 C           -0.48331103        3.33619542       -2.71442819
 C           -1.52192941        3.33151917       -1.70504725
 C           -2.34064176        2.14297366       -1.53632129
 C           -0.48253188        2.28035492       -3.70373263
 C           -2.63497311       -0.19309727       -1.99293671
 C           -2.00128246       -1.39532419       -2.52017864
 C           -0.94563994       -1.27419622       -3.41421454
 C           -0.72512135        0.00511811       -4.06461985
 C           -2.21011574        1.06559100       -2.41480976
 C           -1.41905938        1.17756803       -3.56331893
