58
Modified xyz file
 C            1.37893479        0.20162386        4.66704259
 C            0.61171138       -1.01289235        4.46380841
 C            1.44317095       -1.94435145        3.72619272
 C            2.60490563        0.08608098        3.89158764
 C            2.62099265       -1.22162763        3.27106358
 C            2.69404793        1.25240932        3.04169645
 C            0.61129978        1.30618619        4.11519579
 C            1.49645893        2.05546069        3.25904649
 C           -0.67274524       -0.63963046        3.89888329
 C           -0.60882982        0.76850021        3.53971607
 C           -1.28824838       -1.51082684        3.01443134
 C            0.86747081       -2.61927788        2.57540653
 C           -0.50570615       -2.57299718        2.38368793
 C            2.66530020       -1.32434341        1.81984007
 C            1.73239010       -2.36792623        1.43596226
 C            2.83819476        1.08295510        1.60222398
 C            2.76221767       -0.18163376        1.01684465
 C            1.01236663        2.44609554        1.95277663
 C            2.07012677        2.15320855        1.00970785
 C           -1.01648446        1.16624541        2.25874444
 C           -0.29516633        2.14820872        1.56131085
 C           -2.13403267       -0.95236858        1.97900929
 C           -1.93454633        0.36684830        1.56715474
 C           -1.02198375       -2.73665949        1.03509273
 C           -2.25966628       -1.98655612        0.97399004
 C            1.18593673       -2.30767308        0.16049859
 C           -0.15027489       -2.67045173       -0.05160391
 C            2.34994912       -0.27046803       -0.31984465
 C            1.80712640       -1.47678418       -0.76461032
 C            1.68901416        2.04013973       -0.31157780
 C            2.06481724        0.90662038       -1.02960445
 C           -0.59830315        2.37626425        0.21648368
 C            0.47775981        2.61562013       -0.64509512
 C           -2.35484989        0.73871455        0.28735016
 C           -1.78542418        1.86332963       -0.31245161
 C           -2.73354193       -1.62131658       -0.26919450
 C           -2.99701292       -0.21509469       -0.50721920
 C           -0.69306690       -2.49595373       -1.32900811
 C           -2.03067336       -2.10235876       -1.44541385
 C            1.44495615       -1.60358320       -2.09385090
 C            0.18353420       -2.25811616       -2.38624997
 C            1.63791658        0.82104772       -2.36384028
 C            1.53328867       -0.44086050       -2.95298599
 C            0.23745925        2.79874718       -1.99224005
 C            0.93617137        1.90990193       -2.90343256
 C           -2.12964689        2.19774089       -1.62533331
 C           -1.13604766        2.87783540       -2.43082595
 C           -3.04337101       -0.04477275       -1.94732683
 C           -2.44829943       -1.24048861       -2.54217997
 C           -2.76816010        1.20524736       -2.47674879
 C           -0.31482075       -1.70844802       -3.63668942
 C            0.61830114       -0.67660849       -4.06085366
 C           -1.64755456       -1.13906520       -3.67385083
 C            0.09506129        1.75198175       -4.08010917
 C           -1.19480283        2.35665766       -3.78484644
 C           -2.18865497        1.30029688       -3.80627804
 C           -0.15436395        0.42446029       -4.59567470
 C           -1.56460234        0.12470644       -4.38580839
