58
Modified xyz file
 C            1.47798733       -0.01752517        3.88997795
 C            0.64239557       -1.20455030        3.84592194
 C            1.18161813       -2.09452534        2.83471549
 C            2.46309021       -0.12800644        2.82801742
 C            2.36100797       -1.45410686        2.26317250
 C            2.29771807        0.99877580        1.93602569
 C            0.63524763        1.12457252        3.58972032
 C            1.19199079        1.79763385        2.43572624
 C           -0.73519800       -0.77678661        3.72668186
 C           -0.73658111        0.66660936        3.50988728
 C           -1.60680320       -1.56807216        2.99316421
 C            0.31204559       -2.78732454        1.98661024
 C           -1.06809979       -2.56431858        2.07259588
 C            0.82799463       -3.28647518        0.79027394
 C            2.59918307       -1.62247492        0.90609554
 C            2.12078711       -2.80108099        0.34708928
 C            2.38701901        0.77874882        0.56268477
 C            2.75444642       -0.48717180        0.09022112
 C            1.76338693        1.68507056       -0.30407989
 C            0.32256514        2.34185667        1.50471588
 C            0.81015678        2.56863286        0.22257147
 C           -1.56041335        1.21189511        2.52604061
 C           -1.06098215        2.22070861        1.69308354
 C           -2.73541638       -0.93110930        2.34100767
 C           -2.69325357        0.50280346        2.12703344
 C           -1.85179553       -2.50120357        0.84554911
 C           -2.92178705       -1.55590938        1.03987763
 C           -0.02223373       -3.30232969       -0.38879281
 C           -1.18535661       -2.54794382       -0.37107294
 C            2.19183533       -3.00140248       -1.08390163
 C            0.83620334       -3.26636303       -1.54837880
 C            2.97511438       -0.64573449       -1.27608397
 C            2.73454724       -1.93636013       -1.89636397
 C            1.92837930        1.54673718       -1.69081488
 C            2.48486643        0.36928027       -2.19467578
 C            1.17475447        2.33127063       -2.56487229
 C            0.08513789        3.41047992       -0.60731526
 C            0.27387215        3.33426458       -2.03781728
 C           -1.91261205        2.76899810        0.73414612
 C           -1.33720370        3.53443384       -0.36311124
 C           -3.25187403        0.73737265        0.80756975
 C           -3.09001621       -0.50151583        0.06672131
 C           -2.94898449        1.92307444        0.16381304
 C           -1.36431752       -1.51649365       -1.31683214
 C           -2.30846882       -0.49553740       -1.08791991
 C            0.53916273       -2.31751445       -2.59524687
 C            1.80334297       -1.72389615       -2.98699883
 C            1.81076565       -0.31261739       -3.29709141
 C           -0.57636330       -1.48611460       -2.48409397
 C            0.47755500        1.66934562       -3.65108529
 C            0.62935469        0.23600739       -3.76621870
 C           -0.62501277       -0.36945585       -3.32153013
 C           -1.03440628        3.12046757       -2.64545248
 C           -2.01383233        3.11848889       -1.57972446
 C           -2.69786045        1.87889895       -1.26381276
 C           -2.26440597        0.68065683       -1.83992237
 C           -0.93458378        1.94228530       -3.48220116
 C           -1.55566976        0.70455031       -3.03530002
