58
Modified xyz file
 C            1.49487815       -0.02243843        4.26074104
 C            0.74290603       -1.21616859        3.92206790
 C            1.63737340       -2.08445308        3.19084892
 C            2.66127701        0.01484279        3.39281881
 C            2.81735949       -1.30725556        2.83177147
 C            2.49512788        1.13648209        2.48522072
 C            0.67187123        1.12192116        3.92384041
 C            1.45560753        1.97919180        3.05595272
 C           -0.49430131       -0.80165290        3.28040725
 C           -0.60487081        0.63932687        3.42009486
 C           -0.87297730       -1.38561012        2.07484667
 C            1.14766896       -2.69898132        1.97456223
 C           -0.16680602       -2.49060015        1.57544233
 C            2.99046460       -1.43275945        1.39771496
 C            2.18933008       -2.56529509        0.97305437
 C            2.51845541        0.91911549        1.10166042
 C            2.99987651       -0.29706631        0.59130235
 C            1.85171842        1.82259573        0.26097523
 C            0.75474626        2.81144375        2.20400403
 C            1.19362136        2.90919032        0.82708062
 C           -1.21324917        1.37171906        2.40326890
 C           -0.68357737        2.63149107        2.12348231
 C           -1.74919067       -0.68861955        1.23882422
 C           -1.92118387        0.69556230        1.39913728
 C           -2.31137806       -1.34551333        0.14443930
 C           -0.50588910       -2.98801032        0.32605389
 C           -1.69113069       -2.49228267       -0.34104773
 C            1.82962495       -2.64844240       -0.37039932
 C            0.54591851       -3.11277402       -0.67494843
 C            2.97122483       -0.51429663       -0.78155578
 C            2.48315670       -1.79931368       -1.26355060
 C            1.64634112        1.50942058       -1.08676671
 C            2.41775041        0.50430622       -1.65087266
 C            0.52556509        2.00560890       -1.77678336
 C            0.09349836        3.51702299        0.10868989
 C           -1.10028407        3.32461020        0.92537190
 C           -0.22241288        3.04111145       -1.22344836
 C           -2.57189701        1.43573990        0.40235611
 C           -2.09371935        2.70502204        0.07884128
 C           -1.66837844        2.96094375       -1.28513715
 C           -3.20895724       -0.67252608       -0.67518881
 C           -3.31965127        0.76991788       -0.56444591
 C           -3.26123621       -1.02055301       -2.08775569
 C           -1.47803474       -2.64438321       -1.77280174
 C           -0.05321900       -2.85876298       -1.97968945
 C           -2.18862380       -1.82740562       -2.64231723
 C            1.94896261       -1.59165821       -2.59681522
 C            1.95424422       -0.15852443       -2.85234555
 C            0.62698499       -2.09427271       -2.91822836
 C           -0.01865292        1.29643608       -2.85745497
 C           -1.46546203       -1.00253268       -3.60460126
 C            0.65683884        0.19853215       -3.38315273
 C           -0.07588317       -1.03654348       -3.62400410
 C           -2.24340174        2.20552673       -2.29078846
 C           -3.32341100        1.31251168       -1.91457715
 C           -3.33112597        0.20756870       -2.85438816
 C           -1.36876366        1.45534724       -3.17926026
 C           -2.11472410        0.29618710       -3.64254728
