58
Modified xyz file
 C            1.52942440        0.09954617        4.21341996
 C            0.73046048       -1.08796833        3.96441175
 C            1.56905862       -2.02141915        3.25072249
 C            2.67778718        0.04438270        3.32411448
 C            2.77784672       -1.31445017        2.84465678
 C            2.53526725        1.11378603        2.35009969
 C            0.73702106        1.24899444        3.82445643
 C            1.50326538        2.00635477        2.85443273
 C           -0.51699997       -0.66903497        3.34825968
 C           -0.57888902        0.77913207        3.42857560
 C           -0.96373711       -1.29218905        2.18068179
 C            1.03023354       -2.65958210        2.06750069
 C           -0.27950472       -2.40856524        1.67185898
 C            2.93984135       -1.53015521        1.42150853
 C            2.06822305       -2.62992594        1.05372893
 C            2.58009498        0.81821293        0.98207685
 C            3.02223253       -0.44423669        0.55454243
 C            1.96743418        1.69650130        0.07510900
 C            0.79304485        2.76836265        1.94403194
 C            1.21690128        2.76776676        0.55875306
 C           -1.23461634        1.46179525        2.41304618
 C           -0.65411193        2.63011592        1.91372343
 C           -1.88834934       -0.61330435        1.37509547
 C           -2.11268011        0.75544280        1.59466576
 C           -2.44240478       -1.25961881        0.26194673
 C           -0.65130736       -2.92120051        0.43748072
 C           -1.82376798       -2.40108999       -0.23284911
 C            1.69743079       -2.75212371       -0.28356977
 C            0.38216431       -3.13248199       -0.56830668
 C            3.00892197       -0.74381626       -0.80148804
 C            2.41593720       -2.00721574       -1.21887044
 C            1.92959777        1.39325280       -1.28877867
 C            2.59015208        0.26368785       -1.75255048
 C            1.01344660        2.03755284       -2.12468236
 C            0.08888399        3.25665889       -0.21582867
 C           -1.09549230        3.15032173        0.62796291
 C            0.01096233        2.92509311       -1.56020817
 C           -2.87518722        1.48853697        0.69320975
 C           -2.28151032        2.66786332        0.08995951
 C           -3.36270591       -0.60249105       -0.55165136
 C           -3.63012832        0.80017893       -0.32909922
 C           -3.29793880       -0.80470643       -1.99001825
 C           -1.61027395       -2.53678876       -1.66653414
 C           -0.20863261       -2.86553428       -1.87449325
 C           -2.24654380       -1.65119296       -2.52718794
 C            1.89810639       -1.82986292       -2.56312377
 C            2.07846017       -0.43231717       -2.92256364
 C            0.52227155       -2.18853458       -2.84260254
 C            0.39115222        1.30782718       -3.22083490
 C           -1.45125786       -0.84249577       -3.44117277
 C            0.84912035        0.03518267       -3.53630486
 C           -0.08581698       -1.08109057       -3.56483960
 C           -1.27445751        2.58159971       -2.15157434
 C           -2.41132203        2.52417114       -1.34990729
 C           -3.41457785        1.50079529       -1.58710732
 C           -3.18430543        0.50309483       -2.61482427
 C           -1.03866493        1.57140532       -3.17739334
 C           -1.93956006        0.52577634       -3.36166708
