58
Modified xyz file
 C            1.41081660        0.01586698        4.06616696
 C            0.59235509       -1.17341698        3.96936312
 C            1.22200380       -2.06265673        3.00748269
 C            2.43731214       -0.08118047        3.04185200
 C            2.17703042       -1.26413771        2.25514541
 C            2.46073002        1.17989396        2.35221917
 C            0.56909094        1.15139302        3.72807658
 C            1.29925092        1.94612999        2.77718152
 C           -0.77607122       -0.74985134        3.72242680
 C           -0.72315313        0.64871383        3.32439381
 C           -1.59749253       -1.61233946        3.01479867
 C            0.40679130       -2.94042084        2.31588369
 C           -1.02881747       -2.86592891        2.54512966
 C            0.59389746       -3.08047535        0.88362474
 C            2.03066148       -1.13458410        0.87014092
 C            1.29730667       -2.10028494        0.17410538
 C            2.73972178        1.19741176        0.99408627
 C            2.41172865        0.05753480        0.22734347
 C            2.58798260        2.44686745        0.41304878
 C            0.60328676        2.60968596        1.77610838
 C            1.42272343        3.21014170        0.83016760
 C           -1.23801084        1.02927805        2.08314245
 C           -0.63519951        2.07803210        1.35329951
 C           -2.41085662       -1.08021180        1.93434608
 C           -2.22016691        0.22713413        1.49216326
 C           -1.69036525       -3.21820577        1.30306077
 C           -0.66134289       -3.58241522        0.35025727
 C           -2.59580976       -2.13844639        0.95076845
 C           -0.92562929       -3.36586017       -0.98740393
 C            1.06236911       -1.95497566       -1.19497573
 C            0.12692962       -2.80045793       -1.80185489
 C            2.22367191        0.17588372       -1.16264534
 C            1.53332727       -0.81880383       -1.86635143
 C            2.71653822        2.57272281       -1.01299648
 C            2.49822751        1.38794363       -1.80895998
 C            0.82892978        3.78674030       -0.34573460
 C            1.76110118        3.58160380       -1.44033446
 C           -1.17656877        2.45724725        0.10737751
 C           -0.46348876        3.29088320       -0.75280926
 C           -2.74795744        0.57656092        0.26002343
 C           -2.22099738        1.72555942       -0.44324112
 C           -2.72568915       -1.79702709       -0.39410174
 C           -2.12905276       -2.62794223       -1.34594422
 C           -3.01982742       -0.46999152       -0.71550795
 C           -0.52541268       -2.40370206       -3.03135034
 C           -1.92250444       -2.15145452       -2.70333792
 C            1.10829076       -0.54325841       -3.17086364
 C           -0.02196352       -1.25216107       -3.73273721
 C            1.68015483        1.79683784       -2.94062451
 C            1.01784830        3.02415650       -2.55081298
 C           -0.38064524        2.94484816       -2.16701030
 C            0.90785056        0.83465827       -3.55733873
 C           -2.19379222        1.41248767       -1.86564990
 C           -2.72022959        0.06427553       -2.03748885
 C           -2.20133696       -0.76507746       -3.02099511
 C           -1.10878809       -0.28818904       -3.84509360
 C           -1.12978122        1.87148218       -2.64422397
 C           -0.53697805        1.02148207       -3.58279618
