58
Modified xyz file
 C            1.54541856       -0.04480966        4.45149081
 C            0.68600354       -1.21173655        4.51226558
 C            1.23493582       -2.19174170        3.60260545
 C            2.49012863       -0.23086303        3.35818705
 C            2.29316024       -1.55756860        2.82928707
 C            2.34960188        0.89321984        2.45807828
 C            0.71104381        1.08023913        4.09408869
 C            1.43576794        1.83357094        3.09191737
 C           -0.62230936       -0.84146475        3.99034035
 C           -0.60447387        0.57764446        3.72593936
 C            0.11913468       -2.74877036        2.86417630
 C           -0.93114574       -1.73938167        2.89676772
 C            0.41647214       -3.31205896        1.63948086
 C            2.27546266       -1.75449927        1.45228452
 C            1.68661030       -2.94186769        1.03652065
 C            2.23547137        0.66529865        1.08182163
 C            2.25508513       -0.64557139        0.57693940
 C            1.76188209        1.70816162        0.27785274
 C            0.68060720        2.63078565        2.25782157
 C            1.12635201        2.78522429        0.89391507
 C           -1.16463451        1.06273210        2.54778389
 C           -0.73666085        2.32105182        2.14600339
 C           -1.39990138       -1.21159162        1.68917301
 C           -1.63127815        0.16957371        1.56455169
 C           -0.54799843       -3.16383509        0.57417162
 C           -1.33626999       -2.01193719        0.54187931
 C            1.57076492       -3.20844184       -0.37306499
 C            0.17485372       -3.54455644       -0.61611636
 C            2.06141368       -0.84970470       -0.80161833
 C            1.90302261       -2.14708786       -1.29350482
 C            1.55551965        1.50466391       -1.08964153
 C            1.71999255        0.22678762       -1.63229244
 C            0.91431038        2.50562093       -1.83387245
 C            0.00488831        3.39915056        0.22346741
 C           -1.17001564        2.83069329        0.86777460
 C            0.01937381        3.43157650       -1.15614746
 C           -2.08252967        0.67771405        0.33487158
 C           -2.02923525        2.06282669        0.09592906
 C           -1.73963444       -1.48856361       -0.69246792
 C           -2.30077628       -0.20781326       -0.72991744
 C           -0.19181244       -2.91077417       -1.85460940
 C            1.02670397       -2.36256481       -2.42494594
 C           -1.32811008       -2.11524802       -1.88546490
 C            1.35328992       -0.01873742       -2.96297469
 C            0.88467434       -1.34186495       -3.34559235
 C            0.31279847        2.19287583       -3.12014344
 C            0.54024324        0.94770139       -3.68549928
 C           -1.26363449        3.33789663       -1.82599193
 C           -2.30264049        2.55536325       -1.17628008
 C           -1.03004690        2.76152516       -3.13258180
 C           -2.86744731        0.25733581       -1.91385554
 C           -2.87724628        1.67945238       -2.17153508
 C           -2.16894263        1.91007804       -3.42408941
 C           -1.58515956       -1.49981588       -3.10380664
 C           -0.43510050       -1.16324411       -3.92862430
 C           -0.56002847        0.22624267       -4.31253964
 C           -2.50801661       -0.38904589       -3.15705233
 C           -1.92993823        0.62015359       -4.03315557
