58
Modified xyz file
 C            1.14233105        0.04078031        4.57294414
 C            0.37826457       -1.12434147        4.16479237
 C            1.26530535       -2.01812344        3.45778888
 C            2.45939130       -0.06174965        3.96680986
 C            2.53351040       -1.33112010        3.27117614
 C            2.68891542        1.15323925        3.21518719
 C            0.48827450        1.21672302        4.01831199
 C            1.48042689        1.96629573        3.29139489
 C           -0.80058461       -0.65624049        3.46858188
 C           -0.69618939        0.77936421        3.30647793
 C           -1.28054632       -1.36647750        2.38006309
 C            0.83828813       -2.51458808        2.16212350
 C           -0.46448021       -2.30823365        1.73457880
 C            2.83286896       -1.34792845        1.84764071
 C            1.90053497       -2.26791142        1.21064578
 C            3.05712778        1.06436402        1.81140610
 C            3.18757742       -0.17598074        1.17801165
 C            1.16438330        2.39669307        1.94346001
 C            2.33149570        2.12435748        1.13289355
 C           -1.00937063        1.31185418        2.05037499
 C           -0.09135349        2.14383773        1.38698429
 C           -2.21872099       -0.71485694        1.59378723
 C           -1.97030495        0.63281085        1.28988694
 C           -2.87984097       -1.50375521        0.66794156
 C           -0.74038568       -2.57632297        0.39645029
 C           -2.07915575       -2.52950726        0.03067723
 C            1.57026208       -2.06691938       -0.13063500
 C            0.24601256       -2.26505291       -0.55769772
 C            3.15403085       -0.19633638       -0.21238452
 C            2.41372640       -1.25712307       -0.88168803
 C            2.15190922        2.03117597       -0.23619556
 C            2.83972422        1.03319357       -0.91662493
 C           -0.22238047        2.32503305        0.00755494
 C            0.94049714        2.46564532       -0.76702354
 C           -2.31436850        1.13369191        0.02899781
 C           -1.43792075        2.01270943       -0.60794655
 C           -3.66886052       -0.85865444       -0.35264063
 C           -3.31667783        0.49918984       -0.70755078
 C           -2.42890261       -2.56182444       -1.36889053
 C           -3.57069141       -1.67961257       -1.54596500
 C           -0.12523524       -1.90836183       -1.87009303
 C           -1.41547230       -2.18051998       -2.32762768
 C            1.96419026       -0.73746388       -2.15879545
 C            2.38557158        0.65654015       -2.24274616
 C            0.71233417       -1.09963962       -2.64723772
 C            0.83825559        2.52966676       -2.15177450
 C            1.57673878        1.54720567       -2.93364550
 C           -1.62939885        2.33496417       -1.95123895
 C           -0.47116504        2.68593914       -2.74908959
 C           -3.30676070        0.57049656       -2.16011955
 C           -3.27046863       -0.79778536       -2.65422897
 C           -2.04620534       -1.27431963       -3.27581061
 C           -2.48639959        1.49988713       -2.77800600
 C            0.17738413       -0.35699688       -3.70286509
 C            0.65691516        0.99912771       -3.90844310
 C           -0.49574526        1.87951575       -3.95686835
 C           -1.25725922       -0.34431474       -3.93207213
 C           -1.68140263        1.04776052       -3.90103856
