58
Modified xyz file
 C            1.08854109       -0.16161402        4.13775403
 C            2.34334125       -0.33988658        3.43384165
 C            2.21754210       -1.53952055        2.61629028
 C            0.26331773       -1.32047255        3.83853757
 C            0.83421271       -1.96178402        2.67144865
 C           -1.10489542       -0.86823916        3.76847235
 C            0.28602121        1.02040973        3.87224746
 C           -1.09687029        0.58965348        3.81582826
 C            0.73404039        1.97060484        2.96029838
 C            2.83040111        0.72074957        2.56949608
 C            2.07659104        1.87998896        2.40313346
 C            2.79567789       -1.24475235        1.32350734
 C            3.40153344        0.07212193        1.40250077
 C            2.09689572       -1.57838982        0.16967577
 C            0.09713009       -2.01615865        1.48670870
 C            0.76335897       -2.01137303        0.25870396
 C           -1.89697081       -1.23707478        2.61226211
 C           -1.29499775       -1.86644721        1.51682187
 C           -1.94016398        1.04859655        2.72360279
 C           -2.74907686       -0.09612740        2.35590316
 C           -0.15640839        2.44026849        1.90447397
 C           -1.38833465        1.82940116        1.70603918
 C            2.05101717        2.53220865        1.10406053
 C            0.65683036        2.77873329        0.75397146
 C            3.54478994        0.79335691        0.22469829
 C            2.92694285        2.11023568        0.11343067
 C            2.57584451       -1.08104781       -1.04161013
 C            3.31099364        0.10694031       -1.03573066
 C            1.96065864       -1.49000006       -2.22032184
 C            0.04590565       -2.26509280       -0.90955850
 C            0.74262207       -2.27131173       -2.11926053
 C           -2.01384053       -1.89115555        0.31578402
 C           -1.35611337       -2.19334524       -0.88673756
 C           -3.39662053       -0.06214754        1.14057027
 C           -3.23875785       -1.21346654        0.28321527
 C           -1.90461239        1.71774839        0.41079244
 C           -3.12496229        1.06208430        0.26672469
 C            0.20140060        2.47242058       -0.52824507
 C           -1.04767427        1.86238050       -0.69689658
 C            2.52967961        2.28980759       -1.27169364
 C            2.99096809        1.12936775       -2.01017489
 C            1.11902330        2.46031009       -1.57410939
 C            1.76269434       -0.51890307       -3.29193964
 C            1.99378671        0.81897325       -3.01084278
 C            0.83881077        1.67676190       -2.76092251
 C            0.03869033       -2.09962232       -3.37132016
 C            0.51831234       -0.85661787       -3.95039238
 C           -2.08601750       -2.19879158       -2.08316883
 C           -1.40338813       -2.02675396       -3.34820102
 C           -3.79583819       -0.78753620       -0.98101483
 C           -3.57140189        0.65306308       -1.04855651
 C           -3.26514998       -1.36544530       -2.18925674
 C           -1.41269159        1.36128489       -1.96196069
 C           -0.43639009        1.15293240       -2.94729176
 C           -0.57191687        0.08947323       -3.84432472
 C           -1.77927230       -0.70780968       -3.84496032
 C           -2.70628718        0.88715215       -2.18052506
 C           -2.89892260       -0.25614227       -3.05177869
