58
Modified xyz file
 C            1.55819149        0.04024118        3.88473264
 C            0.73507598       -1.14945940        3.78033540
 C            1.37894612       -2.05499548        2.84828462
 C            2.60519261       -0.05673282        2.88008172
 C            2.48912600       -1.34081681        2.23569724
 C            2.53275154        1.12067058        2.05277196
 C            0.72709399        1.18142412        3.54354408
 C            1.42283588        1.93259959        2.53018154
 C           -0.62165865       -0.72995918        3.50294781
 C           -0.59742656        0.70054499        3.22776626
 C           -1.40325509       -1.54719599        2.70340549
 C            0.59509200       -2.86360442        2.02853980
 C           -0.79727774       -2.69320003        2.02967634
 C            1.21451447       -3.40867948        0.90582826
 C            2.64320058       -1.43334124        0.85606734
 C            2.30785049       -2.66230807        0.29921213
 C            2.70623926        1.00430279        0.67358524
 C            2.57756363       -0.26327131        0.06587983
 C            2.41093835        2.14951191       -0.06635527
 C            0.68782455        2.60917904        1.57058152
 C            1.43416229        3.06690484        0.49810361
 C           -1.23239277        1.18499774        2.08390516
 C           -0.65087921        2.23343627        1.34075610
 C           -2.33322352       -0.93371707        1.77363643
 C           -2.28231603        0.43905231        1.54107556
 C           -1.57794786       -2.94501737        0.82077324
 C           -2.48352314       -1.82461876        0.63585960
 C            0.40363809       -3.95520422       -0.16444037
 C           -0.96915707       -3.51007895       -0.28756865
 C            2.19365882       -2.78608040       -1.13225716
 C            1.08274181       -3.67994716       -1.41708794
 C            2.23283645       -0.34453841       -1.30076999
 C            2.00601462       -1.57988981       -1.90073681
 C            2.09180730        2.02998269       -1.47084767
 C            1.72871171        0.78120261       -1.95080549
 C            0.76075289        3.73192461       -0.58727057
 C            1.31394467        3.20314078       -1.82381084
 C           -1.33071068        2.74234910        0.21953663
 C           -0.67541896        3.60225531       -0.66953057
 C           -2.96127372        0.92470016        0.43279228
 C           -2.55962176        2.19084002       -0.14262115
 C           -2.65138843       -1.25769462       -0.62383739
 C           -3.23165808        0.00703741       -0.66670647
 C           -1.11659214       -2.85939910       -1.58127753
 C            0.15443993       -2.96540926       -2.27235329
 C            0.79845786       -1.73767192       -2.69187248
 C           -1.80835522       -1.65254750       -1.67164488
 C            0.62316600        0.63076188       -2.80203514
 C            0.00684388       -0.61406561       -2.87496138
 C           -1.35981011       -0.69850941       -2.59408984
 C            0.21784472        3.05800074       -2.75457320
 C           -0.97925235        3.54787460       -2.08977331
 C           -0.09040355        1.73654400       -3.25816488
 C           -2.96339416        2.15903686       -1.54059005
 C           -3.17419531        0.76670283       -1.89820543
 C           -2.16464415        0.40349177       -2.86920202
 C           -2.08854551        2.73363863       -2.53966396
 C           -1.53713624        1.63560445       -3.32250411
