58
Modified xyz file
 C            1.38379130       -0.26938490        4.71779188
 C            0.47817582       -1.38304800        4.52760339
 C            1.02352051       -2.22089182        3.47172700
 C            2.49121098       -0.44524136        3.79418502
 C            2.15717477       -1.53796085        2.89309186
 C            2.75672547        0.85380858        3.22241822
 C            0.68444804        0.93955319        4.31250580
 C            1.61408049        1.71081767        3.52361908
 C           -0.77754620       -0.84618028        4.03248386
 C           -0.57546150        0.54627423        3.70510958
 C           -0.07006838       -2.54949842        2.59491082
 C           -1.20464422       -1.71381531        2.96512084
 C            0.17667345       -2.69235158        1.23488692
 C            2.17731281       -1.31927214        1.51025981
 C            1.27490205       -2.01469283        0.67463226
 C            2.97180112        0.93611142        1.79356908
 C            2.88264384       -0.21339327        1.01311014
 C            1.15775082        2.25758369        2.26205730
 C            2.25827518        2.11071237        1.33640128
 C           -0.88773985        0.96763482        2.40771336
 C           -0.12130797        1.96841931        1.79123727
 C           -1.93195032       -1.17040810        1.91543189
 C           -1.77353601        0.19761983        1.62981023
 C           -0.96446547       -2.83355633        0.46153981
 C           -2.11228806       -2.03106937        0.84785634
 C           -0.86518105       -2.77367929       -0.97632890
 C            1.33286196       -1.81949293       -0.71796404
 C            0.28967749       -2.25913880       -1.54801935
 C            2.94773158       -0.01864298       -0.35840977
 C            2.30095569       -0.96570289       -1.23879101
 C            1.96972798        2.19375041       -0.01652270
 C            2.63027332        1.30850075       -0.86457988
 C           -0.38355669        2.28018816        0.46112183
 C            0.69051625        2.60569697       -0.37984846
 C           -2.17922325        0.68911606        0.37635339
 C           -1.58834057        1.86464481       -0.09771993
 C           -2.71752519       -1.53200364       -0.35888972
 C           -2.15990236       -2.31100883       -1.44902092
 C           -2.85169209       -0.16164126       -0.51700855
 C           -2.26348717       -1.80786724       -2.73603466
 C            0.23807577       -1.85240662       -2.88359661
 C           -1.05687603       -1.73198686       -3.54172892
 C            2.05413836       -0.27104761       -2.49291664
 C            2.16207197        1.15791577       -2.23295923
 C            1.05784763       -0.74223195       -3.33192629
 C            0.44685825        2.82705410       -1.72966884
 C            1.17370278        2.01985269       -2.69798463
 C           -1.96433183        2.39307183       -1.32857648
 C           -0.92621212        2.93802160       -2.18037517
 C           -3.22174627        0.29879614       -1.77809836
 C           -3.00328326       -0.56986497       -2.92737349
 C           -2.86929633        1.64414090       -2.17363198
 C           -1.07914310       -0.47206101       -4.26860795
 C            0.18934730        0.19832782       -4.02621784
 C            0.21779797        1.54947957       -3.68601084
 C           -1.02207131        2.28390834       -3.47385345
 C           -2.32635502        0.20389455       -3.95314895
 C           -2.29283933        1.58464584       -3.51073474
