58
Modified xyz file
 C            1.02690821       -0.02640017        4.12798266
 C            2.30980342       -0.29435217        3.51766365
 C            2.30530639       -1.69501796        3.13202081
 C            0.21809827       -1.23125745        3.98746085
 C            0.91365920       -2.09170977        3.05312768
 C           -1.13058123       -0.81454028        3.67552212
 C            0.23318362        1.06868647        3.61198990
 C           -1.14751577        0.63712732        3.69672084
 C            0.64139315        1.75024534        2.46342836
 C            2.68066741        0.45803586        2.33449945
 C            1.73207606        1.27593356        1.72064373
 C            3.11483813       -1.80323569        1.93970991
 C            3.45581051       -0.44958907        1.51742660
 C            2.54988828       -2.46362414        0.78071622
 C            0.35809964       -2.35624375        1.79677529
 C            1.19655927       -2.81209603        0.76918764
 C           -1.70747915       -1.21933945        2.41154710
 C           -0.95736631       -1.95545687        1.49747359
 C           -2.05927558        1.08067735        2.65987216
 C           -2.48667521       -0.09803720        1.91903935
 C           -0.29804569        2.56287923        1.83752420
 C           -1.71084761        2.20958903        1.93663915
 C           -0.05734040        3.02404826        0.48274707
 C            1.77294013        1.46759438        0.32933215
 C            0.97042892        2.45001168       -0.25907535
 C            3.29326472       -0.39999882        0.07786207
 C            3.09596224       -1.76644938       -0.36745236
 C            2.50755956        0.59541587       -0.49104722
 C            2.49812550       -1.97746446       -1.59993798
 C            0.63711531       -3.18014106       -0.45135011
 C            1.40187570       -2.92717436       -1.66277850
 C           -1.41182895       -2.01175266        0.18120162
 C           -0.74075013       -2.82137852       -0.72806791
 C           -2.69569827        0.00986158        0.54570972
 C           -2.34181060       -1.06787485       -0.27288478
 C           -2.28155438        2.37847144        0.61683414
 C           -1.36339865        3.21761827       -0.12939601
 C           -2.85701801        1.28164094       -0.01831131
 C           -1.46640175        3.24269264       -1.51277060
 C            0.94110787        2.56468049       -1.64695113
 C           -0.25824524        3.07131901       -2.29904283
 C            2.15530577        0.45463489       -1.83315877
 C            2.10791877       -0.82126356       -2.39471923
 C            1.44614470        1.47149062       -2.45396249
 C            0.48195032       -2.48091527       -2.69313897
 C           -0.86038462       -2.56462731       -2.15612339
 C            0.94819133       -1.19786599       -3.18977039
 C           -2.68719600       -1.03969306       -1.62083618
 C           -1.79054593       -1.63631072       -2.59212283
 C           -3.15540874        1.39690898       -1.37283007
 C           -2.51765123        2.45653266       -2.14100564
 C           -3.16603976        0.20388704       -2.19622428
 C           -0.56773769        2.19117692       -3.41585767
 C            0.40906659        1.11592039       -3.40940002
 C            0.01002605       -0.21876207       -3.50777000
 C           -1.34846082       -0.55678881       -3.46303998
 C           -1.97717923        1.86785568       -3.35531144
 C           -2.37083809        0.47442502       -3.38632061
