58
Modified xyz file
 C            1.45148558        0.10482489        4.22285233
 C            0.63072220       -1.06281328        3.95177801
 C            1.43847809       -1.99692884        3.20382728
 C            2.62427264        0.02139852        3.36876732
 C            2.68371362       -1.32699892        2.85377480
 C            2.56603373        1.12287140        2.42201418
 C            0.69790367        1.27589513        3.81591860
 C            1.50548608        2.01481749        2.86604895
 C           -0.61407511       -0.60629108        3.36460792
 C           -0.62439223        0.84343813        3.39572326
 C           -1.12570619       -1.23406433        2.23397819
 C            0.89153825       -2.55919370        1.98312077
 C           -0.40239540       -2.24922272        1.58494725
 C            2.87920805       -1.50738819        1.43155413
 C            1.93140356       -2.51078696        0.98041179
 C            2.72387293        0.87655773        1.05367088
 C            3.10219709       -0.40628026        0.61109498
 C            2.26079943        1.83792736        0.14110318
 C            0.83928469        2.77212999        1.91783423
 C            1.34313072        2.79693059        0.55727785
 C           -1.23743261        1.51707476        2.34135703
 C           -0.60719788        2.64971741        1.82096519
 C           -2.13204679       -0.57405109        1.53077688
 C           -2.15523396        0.82705103        1.54130764
 C           -2.80071975       -1.28308606        0.53824650
 C           -0.77806571       -2.60865420        0.29175592
 C           -2.10946092       -2.40573593       -0.06116909
 C            1.55754518       -2.49787940       -0.36068985
 C            0.21649788       -2.72185440       -0.69829751
 C            3.15116276       -0.67332494       -0.75157550
 C            2.37503749       -1.79881186       -1.25243336
 C            2.42199387        1.64488412       -1.22501929
 C            3.01282224        0.41351331       -1.69264723
 C            1.32586484        1.98558932       -2.12229891
 C            0.22642733        3.13297115       -0.31525483
 C           -0.98164872        3.13378258        0.50423618
 C            0.19423704        2.62117639       -1.61537594
 C           -2.81145687        1.52415408        0.52577449
 C           -2.17414326        2.69822806       -0.04843620
 C           -3.50931087       -0.58057374       -0.51712773
 C           -3.47159109        0.80471131       -0.55080289
 C           -2.52900205       -2.50809238       -1.44283191
 C           -3.32051959       -1.32864110       -1.75247425
 C           -0.12627972       -2.72865570       -2.05165094
 C           -1.51544380       -2.64670048       -2.46101496
 C            1.88338682       -1.45086681       -2.57703935
 C            2.23161845       -0.06401231       -2.82221333
 C            1.16538710        0.89054063       -3.06779268
 C            0.63059105       -1.89726315       -2.96756600
 C           -2.71458238       -0.67191557       -2.90081574
 C           -1.63682267       -1.51817477       -3.37414178
 C           -0.11342891        0.42211306       -3.35858680
 C           -0.31114228       -0.94819981       -3.54415029
 C           -1.03187312        2.41495057       -2.24646177
 C           -2.25931555        2.58474855       -1.48968788
 C           -3.13825126        1.47145501       -1.79904631
 C           -1.20237889        1.25959115       -3.11690866
 C           -2.52818478        0.70341828       -2.87121473
