58
Modified xyz file
 C            1.43980224        0.06358934        4.43109644
 C            0.71104129       -1.17759205        4.25060299
 C            1.64815368       -2.11946037        3.68460064
 C            2.57337722        0.02926447        3.52034656
 C            2.75443772       -1.34508815        3.12557798
 C            2.33185477        1.02245873        2.48974128
 C            0.57588508        1.13988643        3.99311248
 C            1.31604394        1.91667280        3.01859875
 C           -0.50902999       -0.87408325        3.51345299
 C           -0.68972108        0.56487444        3.56680855
 C           -0.79638559       -1.55281036        2.32412861
 C            1.17322979       -2.99824360        2.63887244
 C           -0.12097185       -2.73254851        2.02701995
 C            2.82108438       -1.65699183        1.71319962
 C            2.14915089       -2.92451258        1.57089164
 C            2.26728114        0.64481689        1.14142398
 C            2.56592553       -0.67214950        0.75051509
 C            1.65638989        1.51944330        0.23188429
 C            0.56914880        2.64710777        2.11496661
 C            0.96027419        2.62226441        0.72025122
 C           -1.34766927        1.18654749        2.51603646
 C           -0.86552546        2.42675261        2.10414373
 C           -1.51248218       -0.89491781        1.31596316
 C           -2.00273480        0.39161145        1.57419381
 C           -1.56492495       -1.42549454        0.00904806
 C            0.01001558       -3.13091173        0.64308549
 C            1.43336850       -3.13911532        0.34407180
 C           -0.82487395       -2.57026151       -0.32117779
 C            2.24590993       -1.08574331       -0.55091938
 C            1.81537415       -2.41019144       -0.76374853
 C            1.45475463        1.12595984       -1.09347576
 C            1.95216590       -0.11253148       -1.51464221
 C            0.59368674        1.87306239       -1.92057412
 C           -0.18863893        3.11001090       -0.01718611
 C           -1.35114713        2.97339339        0.85674878
 C           -0.32398881        2.76980247       -1.35623370
 C           -2.78894616        1.02860718        0.62007495
 C           -2.50782464        2.42782581        0.32327367
 C           -2.22629901       -0.71131318       -1.00394160
 C           -3.03837525        0.36166764       -0.64260739
 C           -1.92782382       -0.94931907       -2.35875124
 C           -0.39656695       -2.71899514       -1.63913417
 C            1.03796139       -2.65786083       -1.87730716
 C           -1.03934799       -1.96576089       -2.69277153
 C            1.76970945       -0.52204151       -2.83469729
 C            1.25913626       -1.85440538       -3.05049341
 C           -0.02304839       -1.71793146       -3.70645588
 C            0.50153256        1.57587850       -3.27932165
 C            1.07724516        0.34273375       -3.76966495
 C           -0.00453976       -0.43375483       -4.37110288
 C           -2.22552646        0.00793838       -3.33573725
 C           -0.78081069        1.71449176       -3.94494808
 C           -1.20213329        0.37373005       -4.30022199
 C           -1.59268564        2.90677983       -1.92342592
 C           -2.74317933        2.62500168       -1.09032354
 C           -3.33380647        1.40453518       -1.60564327
 C           -1.87687538        2.30501709       -3.20701931
 C           -2.85805762        1.25230362       -2.96220588
