58
Modified xyz file
 C            1.43143678       -0.00789334        4.31454006
 C            0.61235456       -1.17417864        4.02802933
 C            1.39802030       -2.06876307        3.21052113
 C            2.59814269       -0.07009036        3.45123877
 C            2.64964043       -1.39723523        2.88819343
 C            2.54492600        1.05813745        2.54099733
 C            0.66410827        1.16705812        3.94111066
 C            1.38270403        1.86458571        2.89137580
 C           -0.65860426       -0.70362452        3.51193818
 C           -0.69166019        0.74083512        3.66896190
 C           -1.19475140       -1.25967278        2.34952034
 C            0.83006845       -2.54733368        1.96449410
 C           -0.45569832       -2.18585133        1.59287942
 C            2.84774082       -1.52314572        1.45968248
 C            1.86616373       -2.47214651        0.95982836
 C            2.85652239        0.88676657        1.19114109
 C            3.12869781       -0.39819091        0.68407082
 C            2.47317948        1.90928919        0.32506678
 C            0.65728029        2.47503270        1.86808567
 C            1.30138351        2.70422172        0.65607054
 C           -1.42773069        1.47600340        2.75339552
 C           -0.73930460        2.44448467        1.90583690
 C           -2.27012942       -0.60035903        1.74754965
 C           -2.38209267        0.77806890        1.90892260
 C           -2.88001786       -1.18530470        0.64417371
 C           -0.83441259       -2.43084615        0.27780056
 C           -2.17233694       -2.25130243       -0.03352827
 C            1.50457645       -2.38038150       -0.38258626
 C            0.14167894       -2.39845229       -0.73584085
 C            3.15402427       -0.60507012       -0.69390967
 C            2.41438103       -1.74149499       -1.21893993
 C            2.48988951        1.70672291       -1.11045719
 C            2.94691695        0.50221546       -1.60985330
 C            0.52946523        2.89307682       -0.56316567
 C            1.28486933        2.31234429       -1.66398583
 C           -1.50677104        2.56322062        0.67240659
 C           -2.60621110        1.60975959        0.73930264
 C           -0.85674094        2.76734132       -0.54121258
 C           -3.43584917       -0.32858715       -0.39145470
 C           -3.06229343        1.01756860       -0.43364500
 C           -2.59371030       -2.25843658       -1.41492078
 C           -3.48869168       -1.12685582       -1.60595008
 C           -0.23381278       -2.21126251       -2.08133146
 C           -1.57982762       -2.19903904       -2.44183578
 C            2.04190017       -1.43638685       -2.57877305
 C            2.34689053       -0.03262259       -2.81769633
 C            0.67309450       -1.66003761       -2.98411946
 C            0.59931970        1.70332291       -2.71441228
 C            1.14463509        0.58672672       -3.35026699
 C            0.27309778       -0.50230683       -3.76506095
 C           -1.52221725        2.43549313       -1.71853101
 C           -2.72589346        1.62247722       -1.64541674
 C           -0.75614973        1.97963648       -2.86889303
 C           -3.16237427       -0.51384810       -2.87594029
 C           -2.03024612       -1.23523063       -3.43577822
 C           -1.08077935       -0.25818350       -3.94405595
 C           -2.84453078        0.89771559       -2.90035526
 C           -1.59427109        1.06202934       -3.62521740
