58
Modified xyz file
 C            1.40975632       -0.08464966        4.37778083
 C            0.64379595       -1.30730469        4.52711974
 C            1.13694303       -2.26044926        3.54987755
 C            2.37393609       -0.28992013        3.30996809
 C            2.15453388       -1.60165970        2.74358085
 C            2.28162034        0.84640427        2.42472635
 C            0.50073098        0.96018772        3.93734242
 C            1.12001259        1.62163865        2.81378201
 C           -0.73338167       -1.01226608        4.17632192
 C           -0.80461502        0.37317038        3.73465355
 C           -0.01523002       -2.82996528        2.87391411
 C           -1.18488704       -2.04941046        3.26567730
 C            0.13731346       -3.20475684        1.54529731
 C            2.09333521       -1.73095628        1.35622602
 C            1.32458901       -2.76101610        0.82945331
 C            2.46733317        0.65564767        1.06289598
 C            2.42251626       -0.64429651        0.53212333
 C            2.09337772        1.70987039        0.23575064
 C            0.31811595        2.08996509        1.78272313
 C            0.97201992        2.45821543        0.61131548
 C           -1.49467697        0.66355147        2.55791382
 C           -1.01138563        1.64734380        1.68218819
 C           -2.12080922       -1.69780627        2.30160093
 C           -2.38562788       -0.28495044        2.07208259
 C           -0.98622465       -3.08710242        0.62887803
 C           -2.09492464       -2.34720528        1.00020263
 C            0.99940326       -2.74888274       -0.57891215
 C           -0.44114387       -2.91632069       -0.70534335
 C            2.37291535       -0.79336098       -0.86425176
 C            1.62911661       -1.84735867       -1.42532836
 C            2.47312962        1.63578944       -1.09564451
 C            2.71166626        0.31667127       -1.64571111
 C            1.78230903        2.42678273       -2.09824488
 C            0.22806342        3.13403858       -0.34372191
 C            0.67095408        3.16846461       -1.72602368
 C           -1.72559441        1.94183091        0.50842893
 C           -1.20666853        2.93162027       -0.33337225
 C           -2.88856917       -0.15420052        0.72324314
 C           -2.67719265       -1.42406062        0.04354902
 C           -2.65888199        1.01430625        0.01080510
 C           -1.11638083       -2.15337773       -1.65953720
 C           -2.24191295       -1.40222133       -1.28256559
 C            1.05581039       -1.70378050       -2.68698365
 C           -0.39102094       -1.79791571       -2.79765203
 C            2.37091111        0.36161651       -3.05596533
 C            1.74622551        1.64834351       -3.32569610
 C            1.51381951       -0.66944379       -3.58736689
 C           -0.84000413       -0.71789726       -3.65691772
 C            0.47094744        1.40309398       -3.98123656
 C            0.34004965       -0.03334983       -4.16576267
 C           -0.51377130        3.15658939       -2.56876974
 C           -1.67787500        3.06363772       -1.69993203
 C           -0.64360134        2.14690610       -3.60795410
 C           -2.91554325        0.94657478       -1.35689280
 C           -2.63279274       -0.30180612       -2.04682180
 C           -1.94929323        0.02240094       -3.28539952
 C           -2.54650429        2.04028099       -2.22747975
 C           -1.91673776        1.47274905       -3.40993483
