58
Modified xyz file
 C            1.53748058       -0.13913981        3.97227193
 C            0.70831584       -1.32455912        3.86144462
 C            1.17984112       -2.10355374        2.73163856
 C            2.53663653       -0.19808069        2.92098588
 C            2.35296253       -1.42837806        2.18702999
 C            2.46608886        1.03742057        2.17894759
 C            0.68982488        1.01265453        3.70992641
 C            1.25466256        1.73117020        2.59542620
 C           -0.66984941       -0.89018958        3.86100176
 C           -0.66888948        0.54391021        3.59339088
 C           -1.59363805       -1.67380202        3.18965070
 C            0.24855720       -2.66794772        1.85513245
 C           -1.11979020       -2.56288467        2.13021285
 C            0.65043355       -2.95240366        0.55107265
 C            2.53018445       -1.40923933        0.80890196
 C            1.91058704       -2.41245193        0.07306629
 C            2.75757367        1.01777765        0.82084958
 C            2.90838426       -0.21740393        0.16748613
 C            2.31762116        2.11564794        0.09030655
 C            0.41531039        2.23626706        1.60526999
 C            1.05108324        2.72170863        0.46894467
 C           -1.48217654        1.03693558        2.57287503
 C           -0.91110715        1.77110854        1.50846988
 C           -2.78943939       -1.01781079        2.69805417
 C           -2.70880593        0.40104797        2.40393195
 C           -2.05992462       -2.46622790        1.02097749
 C           -3.19105100       -1.68694689        1.47534525
 C           -0.30938781       -2.83321641       -0.53799933
 C           -1.56532101       -2.30930523       -0.27417701
 C            1.81929645       -2.29574070       -1.36736514
 C            0.41154135       -2.42001920       -1.72390576
 C            3.11737494       -0.23337751       -1.21493801
 C            2.58834988       -1.33691858       -2.00484010
 C            2.40557138        2.10742494       -1.35524256
 C            2.92884892        0.98707824       -1.98547846
 C            0.29583110        2.95474230       -0.74037402
 C            1.19895488        2.74637679       -1.86613979
 C           -1.65344325        2.02064161        0.33359449
 C           -1.01969675        2.51808585       -0.81208988
 C           -3.47770652        0.62402310        1.20608221
 C           -3.72905843       -0.67850169        0.59696688
 C           -2.92557059        1.47101173        0.17505042
 C           -2.12091251       -1.36109388       -1.15091915
 C           -3.22929640       -0.60118986       -0.75923180
 C           -3.23919791        0.81041101       -1.07630385
 C           -0.15670544       -1.49525929       -2.59306386
 C           -1.41802379       -0.95126100       -2.29716456
 C            2.09753557       -0.79447997       -3.25729095
 C            2.44803889        0.61462264       -3.30315252
 C            0.67754800       -0.89930842       -3.54387970
 C            0.68266388        2.38502760       -3.10522699
 C            1.31718837        1.32610576       -3.87232772
 C            0.29346482        0.34038186       -4.18513271
 C           -1.59603768        2.28889350       -2.06367749
 C           -2.55623019        1.21219279       -2.20268538
 C           -1.86884361        0.19233938       -2.96694039
 C           -0.75086217        2.21864634       -3.24628009
 C           -0.98679046        0.91703727       -3.85847822
