58
Modified xyz file
 C            1.31864349        0.03709129        4.17371667
 C            2.52577452        0.06003084        3.36876586
 C            2.57916405       -1.19374259        2.63663265
 C            0.52748563       -1.10882310        3.74662769
 C            1.27279724       -1.80844887        2.71899743
 C           -0.80582262       -0.63921021        3.43267119
 C            0.45352497        1.20068530        4.17799086
 C           -0.88410388        0.75784798        3.82083391
 C            0.78619788        2.33202805        3.32974092
 C            2.73835192        1.13736430        2.41116062
 C            1.86324238        2.21468766        2.35801825
 C            3.10398310       -0.91204123        1.31681070
 C            3.18756530        0.53359620        1.17152670
 C            2.61848752       -1.63521499        0.23181146
 C            0.63801448       -2.13823222        1.52709967
 C            1.41706951       -2.34181743        0.38558079
 C           -1.39068629       -1.01435960        2.22871352
 C           -0.73944965       -1.92525302        1.38887717
 C           -2.34255159       -0.16477189        1.67799341
 C           -1.43078693        1.70518454        2.86357764
 C           -0.41669999        2.71186936        2.61024899
 C           -2.13578405        1.21210931        1.77194072
 C            1.35519501        2.65443927        1.06748267
 C           -0.05236693        2.97915584        1.22876931
 C            2.81903300        1.08461603       -0.05412325
 C            1.76338601        2.01062155       -0.10055810
 C            2.95147629       -1.14192425       -1.02623070
 C            3.07639900        0.29923159       -1.17398584
 C            2.29324877       -1.66266345       -2.20928329
 C            0.81546764       -2.92946466       -0.72142087
 C            1.28816627       -2.60654117       -2.05905676
 C           -1.37590719       -2.33287004        0.21054260
 C           -0.63498672       -2.99944414       -0.76552071
 C           -3.11636889       -0.64586232        0.63206117
 C           -2.61864733       -1.78375352       -0.12289056
 C           -3.66460409        0.31072372       -0.31377355
 C           -2.12279262        1.95603188        0.59415071
 C           -0.93525610        2.59549815        0.22589224
 C           -3.04403699        1.62036703       -0.39178617
 C            0.91991545        2.06092806       -1.21977012
 C           -0.42967631        2.39461842       -1.05800771
 C            2.49959837        0.66851135       -2.44759081
 C            2.10209714       -0.55289050       -3.13064664
 C            1.36427914        1.56124627       -2.44140832
 C            0.79045951       -0.32546713       -3.71579063
 C            0.40164701        1.04166849       -3.39761530
 C            0.13482371       -2.56356304       -2.94278982
 C           -1.03839779       -2.90801728       -2.15830487
 C           -0.15816963       -1.34267116       -3.67698014
 C           -2.98089591       -1.58246803       -1.52154034
 C           -3.62966960       -0.28890017       -1.63575584
 C           -2.10369710       -1.99332247       -2.51659279
 C           -1.55745876       -1.01585901       -3.45441062
 C           -2.70286278        1.86459462       -1.78119232
 C           -1.32621546        2.18623258       -2.10410773
 C           -0.93823170        1.35662217       -3.23169330
 C           -3.08186256        0.69075054       -2.55374247
 C           -1.94750484        0.31924506       -3.38166597
