58
Modified xyz file
 C            1.19428421       -0.09633359        4.16036713
 C            2.39836209       -0.33578321        3.38532063
 C            2.29726248       -1.66897543        2.81908460
 C            0.35030174       -1.27667161        4.04271254
 C            0.93961502       -2.13807245        3.03697876
 C           -1.01041833       -0.83132906        3.85982574
 C            0.37367610        1.06403407        3.85706360
 C           -1.00668272        0.62370598        3.82570197
 C            0.80468706        1.98891839        2.91261691
 C            2.73769833        0.57415405        2.30654772
 C            2.04466269        1.76941303        2.17486097
 C            2.79631730       -1.61602801        1.45707560
 C            3.00904950       -0.21714134        1.11554153
 C            2.20271074       -2.44035641        0.51796128
 C            0.19273193       -2.55289122        1.93113844
 C            0.89781056       -3.01353848        0.81749940
 C           -1.73919180       -1.29078167        2.69575471
 C           -1.16184137       -2.19464722        1.80619529
 C           -1.85727990        1.04155376        2.72339355
 C           -2.46601590       -0.15286388        2.15960237
 C           -0.15726970        2.58847706        1.99522266
 C           -1.43706504        2.05028614        1.86135020
 C            1.86961253        2.33257232        0.84969228
 C            0.57910928        2.99959257        0.80996189
 C            2.60641628        0.26269651       -0.13517764
 C            2.28138023        1.61737148       -0.27109826
 C            2.15670179       -2.00077254       -0.86003969
 C            2.28129299       -0.64420372       -1.15584651
 C            0.21948301       -3.23414353       -0.44784882
 C            1.10873443       -2.76859143       -1.50351561
 C           -1.82755256       -2.39564517        0.59869010
 C           -1.14038113       -2.98574290       -0.53564247
 C           -2.82593873       -0.15750158        0.81391476
 C           -2.70492956       -1.34634374        0.09670008
 C           -2.10188302        2.18658267        0.64842117
 C           -2.85887276        1.05557943        0.12946199
 C           -0.07144139        3.09709341       -0.41566669
 C           -1.44066345        2.83283336       -0.47554484
 C            1.88000184        2.10084323       -1.50996200
 C            0.70429917        2.95833323       -1.56486123
 C            1.81144783       -0.17828224       -2.38714890
 C            1.80126423        1.19171071       -2.63375868
 C            0.57692427       -2.28476672       -2.68872937
 C            1.11804602       -1.05174727       -3.23236010
 C           -1.68757705       -2.39558789       -1.74724333
 C           -2.58636677       -1.31885011       -1.35335622
 C           -0.86833931       -2.22443674       -2.85567583
 C           -2.75975515        1.08197033       -1.32232917
 C           -2.03545209        2.29087274       -1.69095871
 C           -2.54781760       -0.10019274       -2.02851672
 C            0.06326171        2.74987512       -2.85062108
 C            0.84880062        1.76358368       -3.57385590
 C           -1.32226456        2.32427132       -2.88100574
 C            0.11881461       -0.54154336       -4.15502134
 C           -1.15275745       -1.12900511       -3.76674176
 C           -2.00729367       -0.04632209       -3.31226224
 C           -0.07421129        0.88931542       -4.26617094
 C           -1.41549831        1.19345247       -3.78769810
