58
Modified xyz file
 C            1.39036394       -0.05088489        4.29734991
 C            0.58766500       -1.21603296        3.96969972
 C            1.38127929       -2.06443950        3.11125431
 C            2.55730065       -0.06483855        3.43076490
 C            2.58591427       -1.33371840        2.74362467
 C            2.52774716        1.13929228        2.63076107
 C            0.60807857        1.13034920        3.97188699
 C            1.35372639        1.91238627        3.00502649
 C           -0.69622460       -0.74893836        3.47994371
 C           -0.72642277        0.69960247        3.61941758
 C           -1.26178361       -1.32447992        2.34073773
 C            0.78188209       -2.54731732        1.88578282
 C           -0.56529747       -2.31628604        1.62395335
 C            2.67250319       -1.33380802        1.29262892
 C            1.72020791       -2.31031894        0.80930758
 C            2.86393543        1.08956202        1.28284721
 C            2.79745087       -0.13689288        0.59249333
 C            2.62716842        2.25964338        0.57623518
 C            0.66910071        2.59656350        1.99746775
 C            1.40008168        2.98346419        0.87412151
 C           -1.42260194        1.43923839        2.67477985
 C           -0.71776747        2.44195048        1.88009446
 C           -2.31356015       -0.64289885        1.71915445
 C           -2.33956297        0.74843458        1.78632516
 C           -2.96433444       -1.24703599        0.65149968
 C           -1.01920231       -2.65344436        0.35027734
 C           -2.36267559       -2.42852587        0.07937149
 C            1.19142143       -2.15893377       -0.46502395
 C           -0.08504291       -2.65999040       -0.69878611
 C            2.51071994       -0.14838434       -0.77885157
 C            1.68568613       -1.15799411       -1.31028902
 C            2.80699295        2.26139567       -0.85761584
 C            2.80821853        0.98401776       -1.53077306
 C            0.71706240        3.18582903       -0.39202226
 C            1.72098088        3.04204430       -1.42632552
 C           -1.34599814        2.48090979        0.56189333
 C           -2.41938885        1.50778576        0.54779491
 C           -0.55693376        2.64684926       -0.56655836
 C           -3.34646908       -0.41325750       -0.47403835
 C           -2.71986959        0.82365818       -0.62315456
 C           -2.86175554       -2.55237318       -1.27648775
 C           -3.51340527       -1.29239998       -1.61210633
 C           -0.50033739       -2.76649799       -2.01901930
 C           -1.91627366       -2.85029182       -2.32644511
 C            1.15563834       -1.04405753       -2.60951479
 C            0.12945687       -1.90665596       -3.00671786
 C            2.14455386        1.19511115       -2.79610180
 C            1.34690454        2.40879687       -2.66623336
 C            1.26016584        0.16627311       -3.29431203
 C           -0.90167308        1.98667964       -1.75676523
 C           -1.99684729        1.10806617       -1.79300971
 C           -0.03263356        2.01193163       -2.85086458
 C            0.03803714        0.84383815       -3.69922625
 C           -3.01004530       -0.86003338       -2.89447425
 C           -2.19195016       -1.94032692       -3.42241244
 C           -0.93049667       -1.35897411       -3.83892047
 C           -2.21950015        0.35704872       -2.95574373
 C           -1.10219073        0.07930990       -3.84470176
