58
Modified xyz file
 C            1.20979825       -0.12216575        4.10709355
 C            2.39955444       -0.32697634        3.30484443
 C            2.24673412       -1.60402254        2.62211868
 C            0.37457121       -1.30167815        3.94369513
 C            0.87874641       -2.03093433        2.79434143
 C           -1.00062552       -0.86049791        3.92882337
 C            0.37569525        1.04049465        3.85681412
 C           -1.00544206        0.59687662        3.90274423
 C            0.75349717        1.97092342        2.89444812
 C            2.76387437        0.66200847        2.30416290
 C            1.99919829        1.80815545        2.15103674
 C            2.73506066       -1.43908996        1.27769116
 C            3.18105674       -0.06495096        1.12271006
 C            2.02802421       -2.00074587        0.22345272
 C            0.06753890       -2.18418918        1.66551446
 C            0.64854036       -2.22789460        0.38050821
 C           -1.85125099       -1.30107047        2.84392042
 C           -1.32242444       -2.07682586        1.80986614
 C           -1.92294691        1.00715498        2.84839960
 C           -2.69323364       -0.17060455        2.50048710
 C           -0.24241555        2.49138902        1.97052914
 C           -1.47200240        1.84483361        1.82993551
 C            1.79115536        2.34429838        0.81543667
 C            0.47047504        2.95190603        0.79343500
 C            3.05045955        0.50275633       -0.14207484
 C            2.24405322        1.64356007       -0.30622573
 C            2.52071079       -1.69199275       -1.03763225
 C            3.15699738       -0.39310440       -1.19923097
 C            1.69974601       -1.91489246       -2.20423398
 C           -0.17229111       -2.36063828       -0.75244959
 C            0.33461993       -2.10964967       -2.03359255
 C           -2.14221086       -2.31045176        0.71397046
 C           -1.54677723       -2.52186398       -0.59114740
 C           -3.34668664       -0.20274873        1.28132341
 C           -3.29732002       -1.44495186        0.53260889
 C           -2.10561307        1.81288306        0.58179614
 C           -3.10754779        0.87520176        0.33271452
 C           -0.20621977        3.03196630       -0.40896734
 C           -1.56073580        2.50946465       -0.49442876
 C            1.67791216        1.93571181       -1.55867098
 C            0.48414161        2.65515287       -1.62790508
 C            2.89647912        0.06531847       -2.54237166
 C            2.18134378       -0.99759773       -3.22691257
 C            2.12825563        1.27712976       -2.70091409
 C            1.22725580       -0.36996626       -4.11730372
 C            1.20621425        1.05247369       -3.80483404
 C           -0.54256773       -1.79295040       -3.07379297
 C           -0.13943361       -0.84528185       -4.09976825
 C           -2.45446758       -1.96131682       -1.58317213
 C           -3.39186189       -1.11577986       -0.87411912
 C           -3.25360063        0.32412110       -1.00815268
 C           -1.91794194       -1.47198254       -2.76002072
 C           -1.75791197        2.00625942       -1.84786264
 C           -0.53337742        2.27190544       -2.59315071
 C           -0.18185087        1.45919284       -3.66124293
 C           -1.01201865        0.31205174       -3.97441190
 C           -2.46654739        0.81964351       -2.04557620
 C           -2.08438655       -0.05601758       -3.06425650
