58
Modified xyz file
 C            1.34375016       -0.00211254        4.50981170
 C            0.60079187       -1.16578055        4.06467075
 C            1.50495942       -1.99222899        3.30053363
 C            2.60896364        0.01513469        3.78912233
 C            2.68398641       -1.19456982        2.99802820
 C            2.70863864        1.28818220        3.10974566
 C            0.59538352        1.17797177        4.11323133
 C            1.51972605        2.06072645        3.44366932
 C           -0.61210720       -0.70546996        3.41354998
 C           -0.58980943        0.74755895        3.38726939
 C           -1.07166944       -1.36341071        2.27963457
 C            1.02279052       -2.53047196        2.04676577
 C           -0.32337361       -2.41136553        1.71774555
 C            2.77850463       -1.09715260        1.54743880
 C            1.97629135       -2.17819962        1.01780969
 C            2.84434233        1.31695239        1.65940019
 C            2.72959809        0.14435371        0.91334693
 C            1.07620791        2.69281611        2.22272419
 C            2.10818057        2.48283770        1.22373306
 C           -0.95638958        1.40454623        2.20445878
 C           -0.24771568        2.55230481        1.81160087
 C           -1.94901117       -0.66623865        1.45398306
 C           -1.72949866        0.70274152        1.26164683
 C           -2.62601113       -1.39720422        0.48844728
 C           -0.68301583       -2.83256196        0.43812761
 C           -2.01174238       -2.63990750        0.07563822
 C            1.47785306       -2.07609697       -0.26938320
 C            0.30990878       -2.77438849       -0.55336570
 C            2.22252905        0.22383716       -0.38863272
 C            1.76412016       -0.93927902       -1.02942017
 C            1.71051045        2.57186584       -0.10069046
 C            1.96066114        1.48239913       -0.94536569
 C           -0.54681127        3.13527057        0.58734193
 C            0.56541230        3.32860829       -0.32530354
 C           -2.04003521        1.29493067        0.02963949
 C           -1.62590853        2.59555936       -0.21080033
 C           -3.07507376       -0.73228467       -0.71720801
 C           -2.54151667        0.51675710       -1.02290773
 C           -2.43147543       -2.91409941       -1.28230981
 C           -3.18171233       -1.75521501       -1.74388198
 C           -0.02655159       -2.91744653       -1.89225968
 C           -1.40384346       -3.19025879       -2.25892314
 C            1.26905299       -0.87550597       -2.33938311
 C            0.51123726       -1.94557832       -2.83074868
 C            1.57948535        1.56675768       -2.28312881
 C            1.20678204        0.35611432       -2.99631566
 C            0.02416692        3.41047199       -1.66098317
 C           -1.37375504        3.00803418       -1.57642722
 C            0.65422467        2.61312291       -2.68990021
 C           -2.28006525        0.86757786       -2.36236714
 C            0.05373291        0.67204205       -3.83996684
 C           -1.61813791        2.05940617       -2.64049765
 C           -0.40986931        1.98636392       -3.44433080
 C           -2.73187292       -1.44560190       -3.08188686
 C           -1.71333629       -2.41792895       -3.44651862
 C           -0.51849415       -1.67914626       -3.81808240
 C           -2.18196322       -0.13091797       -3.33338877
 C           -0.91102569       -0.30482289       -4.02473700
