58
Modified xyz file
 C            1.58518807       -0.04629978        3.86029875
 C            0.74698282       -1.21922021        3.69115001
 C            1.35455224       -2.06043683        2.67715814
 C            2.63102907       -0.09979543        2.85271526
 C            2.53940969       -1.37317284        2.17978428
 C            2.54000419        1.09456024        2.04828874
 C            0.76754668        1.12182107        3.58663364
 C            1.41286096        1.87943135        2.53641773
 C           -0.61468825       -0.77038399        3.49105721
 C           -0.59351973        0.68031700        3.36434300
 C           -1.42725826       -1.50064269        2.63809747
 C            0.54220291       -2.73470640        1.76354510
 C           -0.84200748       -2.53597651        1.79146033
 C            1.13496463       -3.20013197        0.59125870
 C            2.80891345       -1.44259942        0.81835500
 C            2.39582695       -2.60835141        0.18153954
 C            2.73587668        0.99959987        0.67314961
 C            2.94812250       -0.25395028        0.07361700
 C            2.29806407        2.06934167       -0.10647157
 C            0.61749190        2.53609065        1.60421467
 C            1.21278654        2.89374236        0.39897345
 C           -1.32634785        1.28102722        2.34341478
 C           -0.77218569        2.37026589        1.65058725
 C           -2.42489424       -0.79981810        1.85034966
 C           -2.41628923        0.58952825        1.80227999
 C           -1.60508604       -2.57397270        0.54982058
 C           -2.62443933       -1.53685728        0.61472751
 C            0.33225025       -3.36424665       -0.61036329
 C           -0.95181453       -2.83081851       -0.64923509
 C            2.50423351       -2.73498990       -1.25524997
 C            1.21728042       -3.19720668       -1.75250276
 C            3.08703106       -0.31477288       -1.31689636
 C            2.89011880       -1.57121403       -2.01756701
 C            2.10123166        1.90548871       -1.53712044
 C            2.48221074        0.71947533       -2.13691327
 C            0.38436170        3.28179631       -0.72855996
 C            0.81036153        2.48530033       -1.87109552
 C           -1.56046507        3.06479424        0.73533712
 C           -0.96965403        3.49526712       -0.52435010
 C           -3.19665359        1.20087629        0.82928105
 C           -2.88917485        2.56342328        0.44896047
 C           -2.98148609       -0.83290731       -0.53272413
 C           -3.50207860        0.45366733       -0.38416620
 C           -1.42946772       -2.25709359       -1.82671358
 C           -2.45751783       -1.22509995       -1.76693793
 C            0.81396586       -2.32001999       -2.83456929
 C            1.87783773       -1.35217284       -3.03992682
 C            1.55316363        0.06560269       -3.04162562
 C           -0.50222299       -1.88565512       -2.88847211
 C           -0.12827846        1.73470277       -2.58324495
 C           -2.12764127       -0.22305282       -2.77633622
 C            0.21683422        0.46411825       -3.05519031
 C           -0.77704994       -0.49973033       -3.22604458
 C           -1.88481889        3.13186717       -1.58919689
 C           -3.12652420        2.69660031       -0.97761526
 C           -3.43527944        1.37795685       -1.50094506
 C           -1.47060015        2.11537124       -2.54272881
 C           -2.50526071        1.09326266       -2.57405294
