58
Modified xyz file
 C            1.09328564       -0.25466172        4.24267081
 C            2.29549042       -0.54202824        3.48231927
 C            2.14785920       -1.86453324        2.89614024
 C            0.21078334       -1.40603834        4.13555699
 C            0.81833135       -2.34873403        3.21008421
 C           -1.13020620       -0.91688360        3.86985367
 C            0.31939106        0.93131584        3.91881754
 C           -1.06893769        0.53173642        3.77660566
 C            0.83470268        1.86899728        3.03228506
 C            2.70002377        0.37098623        2.42650359
 C            2.07207193        1.59909722        2.30368406
 C            2.55439223       -1.78358047        1.50443484
 C            2.95290542       -0.41106358        1.23023615
 C            1.83936420       -2.47539347        0.52990597
 C            0.05361027       -2.90560343        2.19129041
 C            0.64448689       -3.10911255        0.87308034
 C           -1.83917244       -1.40439227        2.70130555
 C           -1.33006126       -2.48518097        1.99541736
 C           -1.80145724        0.93682939        2.58614316
 C           -2.33996059       -0.25518361        1.96122777
 C           -0.06490495        2.52976490        2.10216134
 C           -1.28279202        1.93111850        1.76832377
 C            1.93185164        2.18519461        0.98158868
 C            0.77383163        3.05775101        1.04086719
 C            2.68874154        0.11942897       -0.03359675
 C            2.13394787        1.40107254       -0.15902962
 C            2.05237031       -2.11663523       -0.79630347
 C            2.56180911       -0.78290473       -1.08071458
 C            1.05284774       -2.42879958       -1.80610515
 C           -0.45228414       -3.14692882       -0.08213525
 C           -1.61781986       -2.58400966        0.57833850
 C           -0.23112970       -2.80958017       -1.41357966
 C           -2.40691488       -0.31354143        0.56926385
 C           -2.30565435       -1.55782325       -0.06103937
 C           -1.72929152        2.01570506        0.45034041
 C           -2.23058069        0.86188006       -0.17743752
 C            0.17007952        3.41061645       -0.14905313
 C           -1.22481991        3.05719120       -0.32055202
 C            1.56188467        1.81786986       -1.37351521
 C            0.81071818        2.99791520       -1.37862701
 C            1.99945761       -0.35122024       -2.34165281
 C            1.23607730       -1.46618759       -2.88506641
 C            1.51055332        0.94309801       -2.47218769
 C            0.18907572       -1.20561647       -3.75798480
 C           -1.32830466       -2.35891980       -2.14527916
 C           -2.36765552       -1.61664547       -1.44545282
 C           -1.12564673       -1.72469753       -3.43534194
 C           -2.41891930        0.82809315       -1.56792694
 C           -2.60759298       -0.40188494       -2.19527185
 C           -2.07215717       -0.62592202       -3.52956137
 C           -1.48324996        3.08579933       -1.74293286
 C           -0.18935954        3.21819136       -2.40188911
 C           -2.15005912        1.95585708       -2.34641202
 C            0.71894876        1.23494399       -3.58659807
 C            0.01541820        0.15012770       -4.25222130
 C           -1.40675120        0.46430606       -4.20995565
 C           -0.20007648        2.35249875       -3.55517952
 C           -1.53855140        1.79632027       -3.65584333
