24
0 1
C       -2.334906    0.036254   -0.384153 
C       -2.067248   -1.086217    0.383785 
C       -1.198844   -2.003973   -0.384106 
C       -1.428489    0.019555   -1.618358 
C       -0.731095   -1.227424   -1.618331 
C       -0.697272    1.247007   -1.618276 
C       -1.974336    1.247130    0.383837 
C       -1.136056    2.040240   -0.384019 
C       -1.266138   -0.662255    1.618131 
C       -1.206641    0.765250    1.618166 
C       -0.092949   -2.333377    0.383919 
C       -0.059627   -1.427540    1.618217 
C        0.697528   -1.246956   -1.618220 
C        1.136105   -2.040241   -0.383920 
C        0.731352    1.227488   -1.618169 
C        1.428756   -0.019496   -1.618140 
C        0.092869    2.333365    0.384023 
C        0.059365    1.427481    1.618282 
C        1.198894    2.004003   -0.383838 
C        1.206392   -0.765313    1.618333 
C        1.974280   -1.247160    0.384105 
C        2.334981   -0.036243   -0.383788 
C        1.265888    0.662202    1.618365 
C        2.067192    1.086220    0.384157 
