40
0 1
C        3.900093    0.198186    0.672204 
C        3.900085   -0.198285   -0.672072 
C        3.250939   -1.508416   -0.781394 
C        3.010935   -0.765818    1.446196 
C        2.713450   -1.832082    0.598866 
C        1.898885    0.002181    2.047070 
C        3.251107    1.508461    0.781499 
C        2.131736    1.406624    1.619540 
C        3.011029    0.765840   -1.446092 
C        2.713648    1.832034   -0.598840 
C        2.131609   -1.406603   -1.619519 
C        1.898750   -0.002200   -2.047088 
C        1.322074   -2.190794    0.427397 
C        0.981908   -2.048974   -0.974966 
C        0.587364   -0.472973    2.049167 
C        0.331681   -1.743827    1.353277 
C       -0.587294    0.470917    2.049389 
C        0.982041    2.048670    0.974641 
C        1.322046    2.190612   -0.427201 
C       -0.332236    1.741877    1.354687 
C        0.587364    0.472942   -2.049277 
C        0.331458    1.744094   -1.353431 
C       -0.332026   -1.742144   -1.354834 
C       -0.587310   -0.470875   -2.049484 
C       -0.981901   -2.050317    0.973248 
C       -1.322231   -2.190584   -0.429796 
C       -1.899132   -0.004380    2.047026 
C       -2.131705   -1.408469    1.618130 
C       -3.010728    0.764160    1.447197 
C       -1.322266    2.190818    0.429993 
C       -0.981779    2.050655   -0.973568 
C       -2.713179    1.831573    0.600766 
C       -1.898987    0.004389   -2.047007 
C       -2.131593    1.408444   -1.618095 
C       -3.250842    1.509267   -0.779790 
C       -2.713367   -1.831509   -0.600762 
C       -3.251011   -1.509329    0.779864 
C       -3.899925   -0.198984    0.671989 
C       -3.010795   -0.764215   -1.447075 
C       -3.899897    0.199037   -0.671858 
