40
0 1
C       -3.013168   -0.582476    0.427002 
C       -2.825898    0.633313    1.025106 
C       -2.582820    1.657744   -0.065969 
C       -2.849744   -0.401532   -1.074273 
C       -2.365162    0.909336   -1.331189 
C       -2.169113   -1.538526   -1.547428 
C       -2.222734   -1.756413    0.813557 
C       -1.798121   -2.416574   -0.365634 
C       -1.279277   -1.585393    1.875246 
C       -1.789871    0.853182    2.047305 
C       -1.009171   -0.219067    2.427566 
C       -1.697008    2.584078    0.397622 
C       -1.119757    2.100970    1.722217 
C       -0.576120    2.974878   -0.414515 
C       -1.131339    1.110738   -2.057810 
C       -0.273847    2.225881   -1.662826 
C       -1.022434   -1.359915   -2.323913 
C       -0.457524   -0.057659   -2.546488 
C       -0.437150   -2.856114   -0.556329 
C        0.050861   -2.262841   -1.790184 
C       -0.053280   -2.262360    1.790221 
C        0.434208   -2.856480    0.556790 
C        0.457460   -0.057432    2.546522 
C        1.020997   -1.359962    2.323464 
C        0.276218    2.226458    1.663127 
C        0.578872    2.973548    0.413769 
C        1.132610    1.110469    2.057887 
C        1.122149    2.100422   -1.723576 
C        1.699485    2.582125   -0.398092 
C        1.008961   -0.220674   -2.427894 
C        1.277364   -1.586686   -1.874670 
C        1.790323    0.851184   -2.047001 
C        1.795905   -2.418322    0.366148 
C        2.167967   -1.540570    1.547917 
C        2.221001   -1.758823   -0.813035 
C        2.366290    0.907443    1.331260 
C        2.584400    1.655209    0.065740 
C        2.826577    0.630390   -1.025043 
C        2.849080   -0.404052    1.074271 
C        3.012809   -0.585494   -0.426872 
