40
0 1
C        3.383423   -0.292117   -0.614468 
C        3.374325    0.151214    0.704034 
C        2.704074    1.473489    0.760181 
C        2.617655    0.690908   -1.454988 
C        2.367722    1.852810   -0.616968 
C        1.526957    0.017735   -2.047610 
C        2.663249   -1.577146   -0.698164 
C        1.641491   -1.428963   -1.689612 
C        2.543711   -0.788859    1.517558 
C        2.262931   -1.937824    0.655601 
C        1.646768    1.366996    1.702331 
C        1.464395   -0.072825    2.069268 
C        0.518257    2.182225    1.532542 
C        1.175584    2.524707   -0.820829 
C        0.468815    2.997676    0.363091 
C        0.212959    0.630812   -2.147609 
C        0.143080    1.980159   -1.735159 
C       -1.002936   -0.243634   -2.092886 
C        0.481972   -2.188351   -1.561684 
C       -0.860879   -1.620526   -1.884345 
C        1.034761   -2.559496    0.820357 
C        0.353188   -2.990750   -0.377499 
C        0.119808   -0.632657    2.149358 
C        0.002366   -1.982753    1.727172 
C       -0.853875    1.678799    1.830816 
C       -1.057147    0.267411    2.079039 
C       -0.929984    3.158122   -0.002609 
C       -1.133250    2.552011   -1.270729 
C       -1.747533    2.430697    1.004749 
C       -2.257243    0.383704   -1.615432 
C       -2.293614    1.712302   -1.206317 
C       -2.763105    1.755149    0.269369 
C       -2.299615   -0.276550    1.610280 
C       -3.079138   -0.370347   -0.635113 
C       -3.077612    0.468973    0.632221 
C       -1.810124   -2.386373   -1.032944 
C       -1.063222   -3.110879   -0.079979 
C       -1.281379   -2.499812    1.272059 
C       -2.824024   -1.656326   -0.295656 
C       -2.372812   -1.659710    1.180573 
