40
0 1
C        1.170569   -2.838986   -0.229604 
C        2.282427   -2.097257    0.067152 
C        2.581669   -1.198264   -1.116918 
C        0.679322   -2.400236   -1.602689 
C        1.444629   -1.213076   -1.994294 
C       -0.679197   -2.400272   -1.602690 
C        0.000069   -2.878969    0.649575 
C       -1.170427   -2.839041   -0.229603 
C        0.000049   -2.076361    1.783911 
C        2.341136   -1.256392    1.268723 
C        1.200935   -1.256227    2.110371 
C        3.091749    0.000071   -0.609994 
C        2.915364    0.000065    0.901839 
C        2.581606    1.198389   -1.116919 
C        0.749634    0.000019   -2.332717 
C        1.444573    1.213158   -1.994297 
C       -1.444572   -1.213156   -1.994297 
C       -0.749635   -0.000018   -2.332717 
C       -2.282319   -2.097363    0.067156 
C       -2.581606   -1.198388   -1.116919 
C       -1.200871   -1.256284    2.110373 
C       -2.341070   -1.256504    1.268724 
C        0.745625    0.000014    2.601891 
C       -0.745625   -0.000017    2.601891 
C        2.341071    1.256503    1.268725 
C        2.282320    2.097364    0.067157 
C        1.200872    1.256283    2.110375 
C        0.679197    2.400275   -1.602689 
C        1.170427    2.839042   -0.229601 
C       -1.444630    1.213077   -1.994294 
C       -0.679322    2.400237   -1.602687 
C       -3.091749   -0.000071   -0.609994 
C       -2.915362   -0.000066    0.901840 
C       -2.581670    1.198265   -1.116917 
C       -1.200934    1.256224    2.110372 
C       -0.000049    2.076360    1.783913 
C       -0.000070    2.878968    0.649577 
C       -1.170570    2.838986   -0.229602 
C       -2.341135    1.256390    1.268724 
C       -2.282428    2.097256    0.067155 
