40
0 1
C        3.480616    1.094443    0.268125 
C        3.743938   -0.357998    0.192438 
C        3.323392   -0.805678   -1.056891 
C        2.756488    1.475181   -1.010412 
C        2.651093    0.322546   -1.801396 
C        1.534573    2.165261   -0.649674 
C        2.556728    1.295797    1.300461 
C        1.471754    2.159418    0.823260 
C        2.855330   -1.008228    1.221547 
C        2.136372   -0.004813    1.896390 
C        2.293895   -1.860027   -0.902316 
C        2.077980   -2.051933    0.519699 
C        1.347593   -0.141807   -2.211931 
C        1.175467   -1.534834   -1.714347 
C        0.326128    1.945155   -1.371039 
C        0.229123    0.723127   -2.177679 
C       -0.877262    2.403930   -0.717746 
C        0.253207    2.105019    1.458468 
C       -0.883832    2.505493    0.693904 
C        0.742180   -0.182198    2.293130 
C       -0.150146    0.915938    2.269640 
C        0.782144   -2.293178    0.932729 
C        0.157642   -1.471619    2.016560 
C       -0.124403   -2.006673   -1.349627 
C       -0.262201   -2.556437   -0.042909 
C       -1.059851    0.078411   -2.296422 
C       -1.242278   -1.283293   -1.906239 
C       -2.190926    1.890565   -1.101468 
C       -2.293599    0.808197   -1.950971 
C       -2.093299    1.820078    1.237753 
C       -1.598725    0.766377    2.121077 
C       -2.967535    1.577329    0.183335 
C       -1.231514   -1.614651    1.910911 
C       -1.533771   -2.404127    0.656389 
C       -2.165402   -0.516942    1.955604 
C       -2.589559   -1.415236   -1.311638 
C       -3.247150   -0.177176   -1.380270 
C       -3.555453    0.275505    0.025923 
C       -2.661061   -1.902696    0.067662 
C       -3.167675   -0.738226    0.907971 
