38

 C     -3.1000584755     0.0000294508     0.9018386805
C     -2.430794616     1.1928422406     1.3623719913
C     -2.3094624083     2.0736059244     0.2388700494
C     -3.1576098884     0.0000293588     -0.5141948053
C     -2.6075741167     1.2310161795     -0.9750813858
C     -2.6075966778     -1.2309681312     -0.9750801341
C     -2.4308166339     -1.1927956674     1.3623728676
C     -2.3095007485     -2.073562561     0.2388716618
C     -1.2255440629     0.753106519     1.989426502
C     -1.2255581179     -0.7530820876     1.9894268986
C     0.0000144057     1.5088855541     1.8315221632
C     -1.1474850948     2.7673413801     0.0257013471
C     0.0000248622     2.6359576287     0.8970563815
C     -1.453591688     1.2464115102     -1.7881066328
C     -0.6774651869     2.4033360872     -1.3406126312
C     -1.4536145982     -1.2463856167     -1.7881056356
C     -0.7346242424     0.0000058399     -2.1413663692
C     -1.1475365524     -2.7673201902     0.0257035221
C     -0.6775098215     -2.4033246063     -1.3406108587
C     -0.0000133636     -1.5088841652     1.8315233494
C     -0.0000242544     -2.6359569558     0.897058426
C     1.2255593883     0.7530834731     1.9894257261
C     1.225545334     -0.753104874     1.9894265124
C     2.4308175437     1.1927965736     1.3623708718
C     1.1475367339     2.7673202398     0.0257009218
C     0.6775094129     2.4033234797     -1.34061292
C     2.3095010493     2.0735626641     0.2388690597
C     0.7346235827     -0.0000075921     -2.1413666721
C     1.4536140202     1.2463841203     -1.788107119
C     2.6075964218     1.2309674193     -0.9750820613
C     0.6774647711     -2.4033371924     -1.3406109529
C     1.1474852536     -2.7673414486     0.0257030881
C     1.453591145     -1.2464129412     -1.7881061947
C     2.4307955242     -1.1928411535     1.3623718799
C     3.1000599783     -0.0000287942     0.9018377596
C     3.1576095447     -0.0000298138     -0.5141956455
C     2.3094627225     -2.073605757     0.2388707238
C     2.6075738542     -1.2310170949     -0.9750813656


