38

 C     3.3869511556     -0.7137592858     -0.2674115261
C     2.6668156048     -1.8637888465     0.0231615165
C     1.943146747     -1.7568355761     1.2923650414
C     3.1067236954     0.2065857573     0.7892288214
C     2.0843389669     -0.4226614905     1.7362188793
C     2.8019845631     1.450483678     0.2256921239
C     2.7270524783     -0.1364809357     -1.4841458713
C     2.4716693763     1.1949853429     -1.2437075026
C     1.6609239921     -2.1294680191     -0.9654505211
C     1.5939791362     -0.9918827776     -1.8535668636
C     0.6376730323     -2.3411392715     1.1166483218
C     0.4856846022     -2.6415126604     -0.3215957872
C     -0.4482510825     -1.760169002     1.7861988722
C     0.9096169997     0.3254661464     2.1589865963
C     -0.3356540944     -0.391531468     2.2755720335
C     1.7520410253     2.2039793111     0.7130441256
C     0.8188256957     1.7374531856     1.7539821566
C     1.1960636385     1.8050164069     -1.5209974547
C     0.9356265261     2.6795624986     -0.3935905329
C     0.3015583698     -0.4349035908     -2.1856094474
C     0.1002543975     1.0334748545     -2.0746979006
C     -0.7350263617     -2.3896905887     -0.9382754176
C     -0.8329941394     -1.3096476721     -1.9203651114
C     -1.7680425646     -1.9191780281     1.2267928257
C     -1.9432544077     -2.3192578951     -0.1228692731
C     -1.6505685993     0.2452428358     2.024016425
C     -2.5440250221     -0.7150557599     1.452403393
C     -0.4337519943     2.301095048     1.4465194282
C     -0.3483895997     2.920229791     0.09063711
C     -1.6791616401     1.5920190344     1.5306099097
C     -1.2426308389     1.5054732255     -1.7416955687
C     -1.423783723     2.4227798576     -0.621405268
C     -2.4241864361     1.8520305276     0.3070114579
C     -2.1749778068     -0.7871129886     -1.7849093225
C     -2.9034561331     -1.4599637147     -0.7364644032
C     -3.266287117     -0.4398770153     0.2309812864
C     -2.3339769981     0.6114569528     -1.6437413927
C     -3.0925124445     0.8365801324     -0.3595661596


