38

 C     3.1199684161     -0.3070602124     -0.9772645318
C     3.1340933862     -0.7727382989     0.3062895385
C     2.7386963964     0.2926449579     1.2413093958
C     2.693843547     1.0851942924     -0.940927178
C     2.5265239504     1.4930765682     0.4645281571
C     1.5547565148     1.1701512347     -1.7657183014
C     2.0844054013     -1.100377474     -1.6908587405
C     1.1320061572     -0.2092184983     -2.204228448
C     2.2479622153     -1.9364958381     0.4547999001
C     1.6463093048     -2.2003769575     -0.8486160363
C     1.6764457924     -0.242335454     2.0106218307
C     1.4037526194     -1.6431095721     1.542628556
C     0.566851059     0.5813980591     2.3576657586
C     1.4378302721     2.3284238908     0.8156276317
C     0.5441418062     1.9039895644     1.8750291752
C     0.5487373498     2.1421252844     -1.4721388625
C     0.5649527001     2.815160585     -0.2181894091
C     -0.8128963475     1.8187886457     -1.7868180649
C     -0.2833604349     -0.5763349453     -2.2672240154
C     -1.2487602007     0.5246226539     -2.1711178491
C     0.3055455887     -2.5811899254     -0.9008974918
C     -0.6623176232     -1.8579678047     -1.7464177158
C     0.058272893     -2.1076590329     1.5121613179
C     -0.3830397198     -2.8283300024     0.3556135238
C     -0.826337127     0.0628999477     2.3313119367
C     -1.057855443     -1.2766952962     1.9998515579
C     -0.8481147563     2.2486656635     1.5347339478
C     -0.8275094103     2.8726465352     0.2769020303
C     -1.6915791117     2.3840293316     -0.7361132234
C     -1.6960302152     1.1218136153     1.8019426058
C     -2.5162386858     0.3234556507     -1.476672664
C     -2.6416280754     1.4141461444     -0.44519949
C     -2.711036101     0.7702324801     0.834487855
C     -1.9698015066     -2.0112310214     -1.0999446509
C     -1.7685733281     -2.579361605     0.1721710681
C     -2.2269466115     -1.6189833855     1.1861494479
C     -2.8327337618     -0.875542422     -0.9052304109
C     -2.9803349105     -0.6284593593     0.5797528489


