38

 C     -2.9339132935     0.6332912196     0.4643489312
C     -2.8595837794     0.5644759773     -0.9232903919
C     -1.9201476154     1.6142927738     -1.4132232498
C     -2.1257183866     1.8196450312     0.883142403
C     -1.4236128433     2.3228196257     -0.2944238653
C     -1.4180217294     1.5002545356     2.0119405983
C     -2.53283402     -0.4858264124     1.2894392306
C     -1.713113476     0.081331441     2.3561230149
C     -2.051567723     -1.6677472142     0.656816165
C     -2.4908654288     -0.6514191902     -1.5536778898
C     -2.1202473399     -1.7495364455     -0.7742638715
C     -1.0237079531     1.0072550342     -2.3640244372
C     -1.3695859594     -0.3699576123     -2.4899025155
C     0.3720923172     1.3795701552     -2.3305843083
C     -0.0045517428     2.5740058777     -0.1914516078
C     0.8238579739     2.2534587596     -1.2831181454
C     0.0275948884     1.7079715397     2.1320423703
C     0.734779834     2.2426625451     1.0519314045
C     -0.5481901803     -0.5089601413     2.7721761648
C     0.5481901803     0.5089601413     2.7721761648
C     -0.734779834     -2.2426625451     1.0519314045
C     -0.0275948884     -1.7079715397     2.1320423703
C     -0.8238579739     -2.2534587596     -1.2831181454
C     -0.3720923172     -1.3795701552     -2.3305843083
C     0.0045517428     -2.5740058777     -0.1914516078
C     1.3695859594     0.3699576123     -2.4899025155
C     1.0237079531     -1.0072550342     -2.3640244372
C     2.1202473399     1.7495364455     -0.7742638715
C     2.051567723     1.6677472142     0.656816165
C     2.4908654288     0.6514191902     -1.5536778898
C     1.713113476     -0.081331441     2.3561230149
C     1.4180217294     -1.5002545356     2.0119405983
C     2.53283402     0.4858264124     1.2894392306
C     1.4236128433     -2.3228196257     -0.2944238653
C     1.9201476154     -1.6142927738     -1.4132232498
C     2.8595837794     -0.5644759773     -0.9232903919
C     2.1257183866     -1.8196450312     0.883142403
C     2.9339132935     -0.6332912196     0.4643489312


