38

 C     -2.6392593037     -1.6714740176     -0.7504429994
C     -2.6662261031     -1.2451121719     0.6539287103
C     -2.9604137998     0.1103417382     0.7594582119
C     -2.5701883564     -0.4682093989     -1.5131602027
C     -2.9406972793     0.6268460648     -0.6555262489
C     -1.3039111355     -0.4049260877     -2.2267607431
C     -1.420461322     -2.3668654334     -0.9284687174
C     -0.6370047778     -1.6644703504     -1.9263061954
C     -1.5200498082     -1.8197953462     1.3544466682
C     -0.7797547682     -2.5809117468     0.3584413403
C     -0.8012002879     -0.9985531087     2.2618973195
C     -2.1059922546     0.9764529066     1.5327349813
C     -1.0393790881     0.4381150012     2.2996421867
C     -2.2280917682     1.7948412647     -0.6945524351
C     -1.8121596754     2.1312923788     0.7024522701
C     -0.5357365618     0.8340463824     -2.2732579311
C     -1.0622334212     1.9819888161     -1.5485165464
C     0.9254262672     0.7026932592     -2.3323616357
C     0.7814841103     -1.7380280464     -1.8502422295
C     1.5288795325     -0.5733495092     -2.1668004178
C     0.6532108531     -2.673006435     0.4339158502
C     1.4072539938     -2.3783815707     -0.7173164417
C     0.6259563934     -1.1923830737     2.3799542971
C     1.3357603729     -2.0392129905     1.5602397154
C     0.2911995936     1.1190210537     2.3132863712
C     1.2927915601     0.132117075     2.4003800542
C     -0.5876230909     2.7517735514     0.6701991932
C     -0.1530307546     2.7391725494     -0.7324514189
C     0.5377321586     2.2600987868     1.4731303707
C     1.7825377565     1.6073899153     -1.58481051
C     1.2404171927     2.5545914275     -0.7388348404
C     1.7014911885     2.2655180764     0.6620130487
C     2.7129683021     -0.4750528758     -1.2444071648
C     2.5849121829     -1.540490914     -0.3132954991
C     2.5128194012     -1.2864879166     1.0487847099
C     2.4368529909     0.0890345634     1.5312089268
C     2.7877732203     0.8298423948     -0.8065934074
C     2.623947486     1.171534788     0.6079903592


