38

 C     0.0003773011     -0.0000960567     3.0753134106
C     -1.3230468344     0.0863941633     2.5371797352
C     -1.480055848     1.3470131375     1.8463427145
C     0.736793043     1.1027934011     2.5368897926
C     -0.1681683023     1.9943739923     1.8461905108
C     1.9068283637     0.6084485025     1.845832196
C     0.5871457253     -1.1892415858     2.5367220192
C     1.8115693384     -0.8513346092     1.8457924582
C     -1.642561909     -1.1428705621     1.8461359124
C     -0.4261017897     -1.9552906316     1.8459125105
C     -2.4643977868     -1.0774024309     0.6749726218
C     -2.3027677613     1.3884981724     0.6747974996
C     -2.8817763088     0.1882355063     0.1701441632
C     -1.8447597835     2.1911720762     -0.4601507734
C     0.299239809     2.6728786828     0.674637521
C     -0.6166523177     2.7973302754     -0.4602627207
C     2.3542781595     1.3002614882     0.6743977933
C     1.6039365828     2.4016336624     0.1696569984
C     2.819980365     0.5020933022     -0.46063621
C     2.1651161735     -1.5953989003     0.674257212
C     2.7307460063     -0.8645689101     -0.4606910571
C     -0.0510279631     -2.6888020332     0.6745214086
C     1.2778508064     -2.5897832547     0.1696213322
C     -2.1144460607     -1.9327331888     -0.4601069492
C     -0.975427331     -2.693275938     -0.4602456723
C     -2.6042516541     0.1700660879     -1.3074856683
C     -1.915431039     1.3252473613     -1.6686652509
C     -2.0718280126     -1.0650506762     -1.6687797535
C     0.1132952323     2.3264118534     -1.6688987915
C     1.4491515807     2.1700928781     -1.3078630267
C     2.1052968865     0.9960915074     -1.6691512135
C     -0.6351568851     1.2867228734     -2.3323701801
C     1.9579119755     -1.2615170564     -1.6691852658
C     1.1544930148     -2.3401413873     -1.3078910062
C     -0.1903833708     -2.3213738352     -1.6688978162
C     -0.7972781146     -1.1933426144     -2.3325205633
C     1.4317569018     -0.0935080294     -2.332701351
C     -0.0002461931     -0.0000282238     -2.6228155403


