38

 C     3.4179186501     -0.3916978989     0.0016409879
C     3.0928117769     0.3647958758     -1.090594034
C     2.4823049979     1.6247797511     -0.6965026267
C     2.9628749327     0.3567533015     1.1997938425
C     2.3577619614     1.6134500549     0.7346500227
C     2.1253937812     -0.5146732668     1.8732220275
C     2.6966021709     -1.6798187818     -0.0823380244
C     1.9967661567     -1.8016830002     1.1104205695
C     2.0993745456     -0.3681214641     -1.9071561799
C     1.8911794468     -1.6728588559     -1.3164492602
C     1.2909163103     1.7734281498     -1.4827975683
C     1.0247044464     0.4926879131     -2.2125541591
C     0.2083564415     2.482592387     -0.9427061962
C     1.1234555015     2.0447176243     1.3155536663
C     0.1737969804     2.6899120868     0.4818747675
C     0.8061160285     -0.1733503521     2.3563700899
C     0.3404698164     1.137765972     2.1812895345
C     0.6321606187     -2.2214458856     1.1772250161
C     -0.0914479266     -1.3017936817     2.0726473755
C     0.5781968761     -2.1400013322     -1.277980184
C     -0.0068139133     -2.6523852745     -0.0201615437
C     -0.3208220736     -0.0340071794     -2.322617403
C     -0.502494517     -1.4272677168     -1.9863705362
C     -1.1244463493     2.0869136917     -1.319556115
C     -1.4232909655     0.8798433198     -2.0167416456
C     -1.1869127765     2.4066470226     0.9410230432
C     -1.0924863956     1.3734501517     1.9371804495
C     -2.0345271556     2.2324433661     -0.1767163917
C     -1.4620166797     -1.0821687751     1.9046709689
C     -1.9845482051     0.2751889754     1.8509804815
C     -1.4072874126     -2.5157980305     -0.1230083031
C     -1.7253816951     -1.8330737121     -1.364625022
C     -2.1869847236     -1.8536664288     0.8806152412
C     -2.6667400605     0.3867783279     -1.4462276047
C     -2.9800051054     1.2000907979     -0.2329775971
C     -3.0604239083     0.2658286036     0.8274570904
C     -2.8380086371     -0.9610671682     -1.1286281836
C     -3.2065219399     -1.0631905682     0.3000944037


