96

 C     -1.0522649355     4.0743574372     1.6077904816
C     -1.9995277188     3.2679216562     2.2668981621
C     -3.2085724532     3.0709888792     1.562110364
C     -4.096029369     1.9905021186     1.8834261891
C     -3.7092456049     1.0720181445     2.857998426
C     0.3339888683     4.0211237059     1.9606637416
C     2.1956244967     2.7301451183     2.7475508235
C     0.8173843971     3.0318086946     2.8475763033
C     -0.0952037576     2.0149645876     3.3662477849
C     -1.5213099615     2.2391946856     3.1907129369
C     -2.3923334531     1.1722025184     3.4504789109
C     -5.0374244426     0.1967636899     0.5121869098
C     -4.6985179467     -0.7519675545     1.5567830538
C     -4.718990257     1.538296877     0.6657776687
C     -4.0014573633     -0.3234590314     2.6752121226
C     -2.6924495045     -3.7113222095     0.5474108886
C     -4.3400261991     -1.9945593113     0.9324864116
C     -3.2838790131     -2.8100850588     1.4509619665
C     -2.8584043948     -1.0871777072     3.1456908694
C     -1.0675086307     -2.6875011873     2.7132310873
C     -2.4637905988     -2.2964311473     2.5635275501
C     0.788163031     -4.0152847879     1.7680620042
C     -0.5898951038     -3.7714009421     1.8740980194
C     -1.3677430349     -4.2012539076     0.7719649166
C     -0.5128372115     -0.4392064508     3.6549385375
C     -1.8862014344     -0.1577530203     3.6444683264
C     3.5886734218     -1.1668637519     2.7313759579
C     2.2942709409     -0.9765908589     3.2970404289
C     1.3272732233     -2.0569398442     3.1749972902
C     -0.0989791385     -1.7836272443     3.2941257146
C     1.7346761636     -3.2410976355     2.5111968935
C     0.4089166255     0.6857435408     3.6333428201
C     2.6971594577     1.4557902614     3.1607318075
C     1.8296479532     0.4011063261     3.5030907951
C     -3.5558394703     -0.5557018272     -2.7936022658
C     -4.2273008653     0.2533122909     -1.8289355848
C     -4.8437305086     -0.4393108466     -0.7498480038
C     -4.5007162386     -1.8294289565     -0.4800150564
C     -2.8897224362     -3.6040508454     -0.8661472424
C     -3.7269024326     -2.5912622154     -1.3939023253
C     -3.316879594     -1.9644714553     -2.5911032704
C     -3.7796548316     1.6421523802     -1.6475455003
C     -4.1127184362     2.2631447214     -0.427326803
C     -2.5005936864     -0.0354911371     -3.5700228711
C     -2.0525078765     1.3051403369     -3.4253820707
C     -2.6294235955     2.1678777483     -2.4105591694
C     -0.7524872893     1.5556579837     -3.8895681904
C     -1.6433849024     -3.9511865588     -1.5017973498
C     -1.1493037919     -3.2131462264     -2.617733444
C     -2.0580701276     -2.2893328266     -3.1947053245
C     -1.5693250661     -1.1095340514     -3.8267774867
C     -0.1903166693     -0.8861183705     -3.9717799891
C     0.1841451164     0.4641512854     -4.1586289314
C     -0.0076589975     2.6674829342     -3.4333666323
C     -0.4769833598     3.5014973118     -2.4054933003
C     -1.8280632495     3.2537434438     -1.8937084104
C     -2.155511945     3.7832982841     -0.5761073646
C     -3.2557553032     3.2703720373     0.1358037002
C     -1.1385113731     4.3593586893     0.2203856643
C     1.3994214427     2.3090281002     -3.5525245685
C     2.3460677427     2.8729922603     -2.7568893238
C     1.9399432564     3.8487720776     -1.7687049063
C     0.553441529     4.1560238283     -1.5727062285
C     0.2049001314     4.5609680176     -0.2709289351
C     1.4962101456     0.9168825142     -3.9044131433
C     0.7830841194     -1.8245320905     -3.436233692
C     2.8579540023     3.7360307211     -0.6915007518
C     2.4390013562     3.996626151     0.64024986
C     1.1126171268     4.4559513354     0.8259819649
C     3.0099884098     3.2182487898     1.6718013138
C     3.7731760718     2.6298365211     -0.9795050556
C     4.0520808317     -1.5275941139     -1.6161486332
C     4.226991337     -0.1305948144     -1.5300048302
C     4.6517696644     0.443810777     -0.2499309162
C     4.3347023863     1.838610532     0.0503630639
C     4.0070078851     2.2172417285     1.3864682306
C     1.1893327046     -3.715520396     -1.8452875571
C     0.2996203935     -3.0030184947     -2.7475367175
C     2.540058221     -3.3091595702     -1.7755627023
C     2.9911596821     -2.1135197545     -2.4133231896
C     2.1343506116     -1.3341322488     -3.201603634
C     2.487536429     0.0695552832     -3.3500809289
C     3.5018622373     0.6751092771     -2.4971078659
C     3.4272956004     2.0733079956     -2.2447976004
C     2.7614086056     -4.0012274026     0.5590327607
C     1.3992091059     -4.4295615314     0.5269063834
C     0.644331171     -4.3919399621     -0.6695631331
C     -0.752865455     -4.4322940249     -0.5003904217
C     3.3514687437     -3.5065911145     -0.5925068267
C     4.6078835637     -1.8524469779     0.7314973586
C     3.9017635502     -2.3108116341     1.9225375326
C     2.998048717     -3.3411204796     1.8324270725
C     4.2819070483     -2.4021616981     -0.5015483096
C     3.8972670743     1.2204940747     2.4014044555
C     4.8084931014     -0.4402037492     0.8486493338
C     4.3067313342     -0.0618306474     2.1520815997


