96

 C     -4.6461093431     -1.7274427381     0.1085078826
C     -2.2103463181     -1.701882361     3.4980738171
C     -3.294040015     -1.800186551     2.611358888
C     -3.2602448995     -2.9084843659     1.7202712906
C     -3.9155766663     -2.8360301099     0.4394478904
C     -1.0542237767     -2.5354847398     3.3808291322
C     -0.9012400459     -3.4283030583     2.2951229227
C     -2.0666576654     -3.6657370386     1.5325941492
C     1.5414566317     -2.9458498414     2.3399727638
C     0.4170882355     -3.6073793499     1.7023033484
C     2.7644882244     -2.9184484109     1.6643001866
C     1.3600086772     -1.9516986405     3.4002512964
C     2.2847317479     -0.8103868009     3.507801519
C     0.0725772574     -1.8189380315     3.9311504413
C     1.788369255     0.3935181279     4.0394643717
C     -1.7391408711     -3.1743774972     -2.4991063515
C     -2.9454617024     -2.8940183257     -1.8434312719
C     -3.0899623758     -3.4724494368     -0.5517226352
C     -1.9646407132     -4.0206533817     0.1381184245
C     0.5209830611     -4.0232242425     0.3159092945
C     -0.7035691146     -4.1687356637     -0.4737293114
C     -0.6753435487     -3.8804102306     -1.863969371
C     2.8971642431     -3.416958575     0.3388390544
C     1.7694278224     -3.8493552525     -0.3916153957
C     -3.6502363349     -1.6634421798     -2.1853199021
C     -4.6002500363     -1.1878059939     -1.2451822874
C     -4.9277539446     0.1976282329     -1.1438441638
C     -3.0088781059     -0.6946728972     -3.0867238955
C     -3.4351294298     0.6419033362     -3.0186328728
C     -4.3865892044     1.0976432269     -2.0447860542
C     -1.1394802326     -2.2318780099     -3.4270397293
C     -1.6617679165     -0.9521865436     -3.6261665672
C     -0.7154252605     0.1387225834     -3.9042989983
C     -1.1890587551     1.4888580044     -3.7133981051
C     -2.5091391801     1.7265839957     -3.2693955612
C     -0.2609793083     2.5163688405     -3.4429723204
C     0.2605313254     -2.4785278044     -3.4652815147
C     2.5088524606     -1.6902982457     -3.2867695247
C     1.1883707912     -1.4486643013     -3.7274574505
C     0.7145698865     -0.0968963124     -3.9059884989
C     1.6611676321     0.991517     -3.6190837645
C     1.1390648556     2.2693964     -3.4081802796
C     1.7721320602     -3.5655060994     -1.8329506029
C     0.5483549554     -3.5041694319     -2.5048165278
C     2.8101943036     -2.7651873077     -2.395066736
C     -4.5373627531     1.7817429375     0.7000603836
C     -4.0053779887     2.7326804427     -0.2549088553
C     -5.0196164097     0.5514444026     0.2687145852
C     -3.9596040438     2.4093257661     -1.5980164317
C     -2.8096690172     2.7935520313     -2.3679551581
C     -1.7710962366     3.5888774111     -1.7997291911
C     -0.5479290032     3.533483848     -2.4732202949
C     -4.0019863988     -0.5790528346     2.2342646
C     -3.4608294842     0.7151499492     2.663730397
C     -4.7754229281     -0.6201027525     1.0468781071
C     -3.7469565783     1.8519007868     1.8890451728
C     -1.3542406843     1.9288836899     3.4186314548
C     -2.2788707709     0.7866630155     3.5169279243
C     -1.7820307021     -0.4218920659     4.0374791835
C     -0.0663298031     1.7914415809     3.9471676175
C     0.4219628032     0.5319292818     4.4218582578
C     -0.4152787797     -0.5636720937     4.4173939886
C     -2.7602909338     2.9109347449     1.6925669938
C     -0.412857019     3.5995145653     1.7345293342
C     -1.5366474306     2.9323688612     2.3673466149
C     2.0707337915     3.6593823548     1.56308919
C     0.9060081775     3.4152104636     2.3245465958
C     1.0599735925     2.5128285843     3.4021799169
C     -1.7670883609     3.8599784891     -0.3559445889
C     -2.8941641465     3.4211403151     0.3716826072
C     0.6763477988     3.9040508871     -1.8301820275
C     0.7058324737     4.1800854136     -0.4374744427
C     -0.518004007     4.0275958995     0.3519587326
C     1.9674571191     4.0266083103     0.1718971689
C     3.9186570312     2.8393727815     0.460977106
C     3.2644877425     2.9005020527     1.7429835035
C     3.2990861277     1.7843709536     2.6242082754
C     2.2161977954     1.6782285479     3.5110051987
C     4.6488903687     1.7337601095     0.1195910535
C     1.7395664585     3.203662242     -2.4724965749
C     2.9464784959     2.9175263364     -1.8204186391
C     3.0921497945     3.4845249214     -0.5237808386
C     4.3874121812     -1.0721910136     -2.0583500616
C     3.4350740455     -0.607870127     -3.027270859
C     3.0087635323     0.7292520978     -3.0831590355
C     4.929394928     -0.1801700933     -1.149981399
C     4.6018029423     1.2061036716     -1.2387742274
C     3.6509398799     1.690022807     -2.1738114353
C     4.5406655122     -1.7805195888     0.680204296
C     4.0078147621     -2.7229840751     -0.2826495123
C     3.9608274613     -2.3877730801     -1.6228036967
C     5.0225335084     -0.5464547859     0.2593117655
C     4.0066868832     0.5666203326     2.2356962224
C     3.4659155945     -0.7313288549     2.6541972372
C     3.7513370023     -1.8611876663     1.869237648
C     4.7790470141     0.6181681682     1.0480191568


