96

 C     -4.5805982348     2.0352580652     0.135053111
C     -4.3424482691     1.8216682814     1.550984186
C     -4.8838489934     0.9656745628     -0.6877400024
C     -4.5037407568     0.5640985348     2.0981961748
C     -3.5556880218     0.1000182358     3.0676818783
C     -1.8408969477     3.628023921     -1.7567831153
C     -3.035728092     2.9065305744     -1.6056146699
C     -3.6553097724     3.0206199389     -0.3278836
C     -2.8942069171     3.4676296965     0.8073357493
C     -1.6314823193     4.0356596189     0.6709610943
C     -1.2204302218     4.29702538     -0.6765088022
C     1.0893018553     4.4376971049     -0.0060908082
C     0.1688004731     4.413741152     -1.0069488244
C     -1.303700172     -1.3146594534     3.9336253544
C     -1.2082300715     0.0934578534     3.8640711986
C     -2.3768295112     0.8321954993     3.3941963868
C     -2.1968110404     2.1450293243     2.7939126519
C     -3.2180583296     2.6276978675     1.9373523047
C     0.2841001934     2.0278867114     3.2598583127
C     -0.8586421315     2.7265796483     2.6842127173
C     -0.6330427052     3.7639799726     1.6970085893
C     0.698388585     4.1263992707     1.3694152439
C     -3.2388238068     1.7135649781     -2.4183649375
C     -4.2190255254     0.8074539228     -1.9683509506
C     -0.801962455     3.1989070509     -2.6877658256
C     -0.9048674951     1.9705094674     -3.3789760796
C     -2.1522719895     1.2182536918     -3.2815594981
C     -2.1425217407     -0.1718256746     -3.6462984891
C     -0.9348594783     -0.7147743979     -4.1637585886
C     0.4369431872     3.7082071275     -2.2565639954
C     1.6701685228     3.0295803303     -2.4614451158
C     1.6445317413     1.834786877     -3.2624495407
C     0.3566045691     1.3455208775     -3.7489914686
C     0.273665569     0.0110698544     -4.2080610045
C     3.8394419374     1.215492368     -2.3043592952
C     2.7855601265     0.910705098     -3.1870823836
C     3.7840495784     2.3398899399     -1.4196285671
C     2.7281255558     3.2572577062     -1.4764438042
C     2.4144845721     3.9388355961     -0.2442060351
C     -3.0805279086     -1.1090406158     -3.0358083709
C     -4.0897143537     -0.6059395911     -2.2053759528
C     -0.5689452643     -2.1025698303     -3.9211721695
C     -1.3660547491     -2.9090545602     -3.1601703154
C     -2.6587229198     -2.4446872865     -2.7481943064
C     0.8565661225     -2.2062565592     -3.7960159307
C     1.4476742448     -3.053446041     -2.8109333692
C     2.7520875306     -2.7103848618     -2.4357289857
C     2.6191273568     -0.492326796     -3.5408215042
C     1.3862801615     -0.9135813005     -4.0572822417
C     3.3737156595     -1.4981819968     -2.8671977086
C     -2.9499233299     -3.0534099834     -1.5022785624
C     -3.8457771045     -2.4749475122     -0.581169579
C     -4.5395640091     -1.3183067767     -1.0367297544
C     -5.0615683534     -0.3527034741     -0.1130019193
C     -4.8840858822     -0.5540593574     1.2466921015
C     -2.3699868196     -3.3683493241     1.2637791991
C     -3.5960528312     -2.6684006243     0.8392603693
C     -4.1875459986     -1.7300528965     1.7227414415
C     -1.8868491994     -3.100107766     2.550328838
C     -2.4046017412     -2.016133238     3.3378184525
C     -3.5120246835     -1.333964347     2.9274838486
C     -1.7650671062     -3.7924802891     -1.0724306113
C     0.024943287     -3.9970244728     0.5790770054
C     -1.3975326984     -3.8718169547     0.2780561798
C     1.7908471792     -3.3848850235     2.2323678188
C     0.4497558433     -3.7114841765     1.9450316479
C     -0.493166028     -3.2161223393     2.8679795053
C     0.586867242     -3.7492105664     -1.8455873326
C     -0.7957290351     -3.7337746558     -2.1053404972
C     3.265062953     -3.0463279121     -1.1233085208
C     2.4172806467     -3.6324377479     -0.1457993901
C     1.0168223077     -3.9436357049     -0.4763947113
C     2.7948485766     -3.3804006612     1.1907868546
C     3.3836799506     -1.8288628798     2.7878443906
C     2.1400966827     -2.4097698876     3.2073590635
C     1.1355035254     -1.6230114103     3.8382344391
C     -0.1536410623     -2.1505051724     3.7683894736
C     3.6166735079     -0.5038293016     3.0335704013
C     4.2786527861     -2.1004213814     -0.7814138143
C     4.4997250696     -1.6860498489     0.5599981188
C     3.8082557771     -2.4386658547     1.5392579934
C     4.8751991237     0.621354527     -0.2661228504
C     4.5875779488     0.1766665521     -1.6165426571
C     4.3447242809     -1.1493280771     -1.8734930581
C     4.3715848782     0.2867290431     2.084844765
C     4.8056649361     -0.2740858685     0.8327191274
C     2.9026851765     3.4727212125     0.9910174368
C     3.8792260242     1.6062842463     2.1746394994
C     3.9031214001     2.4756489011     1.0598008166
C     4.4094617459     1.9679472785     -0.1651324215
C     1.2825351704     -0.1766227671     3.9425716905
C     0.124784613     0.6890379516     3.8148540602
C     2.5716573737     0.3307881713     3.6191471912
C     2.7375610427     1.6215005717     3.1091087736
C     1.6264136049     2.4823079729     2.924128896
C     1.8003258804     3.5179246901     1.9700375841


