96

 C     2.3929633295     3.434233425     1.7887128089
C     2.9641570442     2.2380664532     2.2610919596
C     4.0573932057     1.6320052375     1.4821746329
C     4.3704340767     0.2212584359     1.6662396908
C     4.9196805979     -0.5319100617     0.5864268013
C     3.6164187151     -0.499642968     2.6336929499
C     1.0594970199     3.8264480911     2.1114155473
C     0.2030633297     3.0158552745     2.8858731482
C     0.7402426437     1.7644813729     3.3893847377
C     2.1207517391     1.4265941928     3.1232803202
C     2.52400768     0.0851074456     3.3391241217
C     -1.5677486885     0.9301968183     3.6486074927
C     -0.1939648349     0.6899142402     3.7204414867
C     -2.1032071283     2.1759631282     3.1530965632
C     -1.2395698624     3.1985464921     2.709351035
C     -1.7266357557     4.0002910044     1.6312749222
C     3.3745776595     -1.920379896     2.5142727819
C     3.7743170572     -2.6198254836     1.3438783006
C     4.5316193316     -1.9177979297     0.3774689914
C     2.9223393339     -3.6531740089     0.8790469375
C     2.1215878687     -2.1969581788     3.1277843489
C     1.2562206473     -3.2160511412     2.6793961039
C     1.7390910938     -4.009322974     1.5931997229
C     -0.5263866536     -4.5273742421     0.9162957437
C     0.812026004     -4.5562728561     0.6436902656
C     0.2145806953     -0.7154317602     3.7141454684
C     1.5880787773     -0.9551160879     3.6351103449
C     -2.5048369668     -0.1076953378     3.3481257872
C     -2.1024454141     -1.4474440444     3.1202156594
C     -0.7209136181     -1.7873831354     3.378314264
C     -0.1857148738     -3.0347726338     2.8629365808
C     -1.0451541665     -3.8392851535     2.0854824262
C     2.6268300064     -3.7781996108     -0.5304493398
C     3.1951462776     -2.915465892     -1.4761763322
C     4.2934354229     -2.1120686083     -1.0181858328
C     4.6669267776     -0.9011018956     -1.6951631552
C     3.916710786     -0.4813822948     -2.7761201045
C     1.2869018034     -4.2745071156     -0.6824124702
C     0.4058624814     -3.7842470066     -1.6763804793
C     0.9195669507     -2.7764780823     -2.5999795382
C     2.3333517575     -2.4230805863     -2.5491957053
C     2.7483539756     -1.2318918366     -3.1873842822
C     -1.4523244001     -2.0879604157     -3.091219721
C     -0.0194766034     -1.8739049122     -3.2206923487
C     0.4346636643     -0.5618283917     -3.6440325134
C     1.7950335326     -0.2912885185     -3.6498925431
C     -2.308278202     -1.0270049957     -3.4585983526
C     -1.9713161567     -3.1149207799     -2.2015249138
C     -1.0278028762     -3.9075421945     -1.4310563096
C     -3.2981212756     -2.9635996906     -1.711393393
C     -1.453906383     -4.3814556431     -0.159971246
C     4.8364374059     1.4126583965     -0.8748984396
C     4.1194018311     1.8659100644     -2.0599566522
C     5.1034557405     0.0630572395     -0.6996768311
C     3.6365858822     0.9302392764     -2.9662485337
C     2.6810625028     3.9135450246     0.4512335973
C     3.6059372453     3.2799825269     -0.3190719103
C     3.2977013747     2.9805420994     -1.7009092241
C     2.3010630198     1.0576728117     -3.4593811969
C     1.4465589961     2.1157034045     -3.0803839071
C     1.9690096195     3.1356769788     -2.1846932499
C     -0.4061057009     3.8008320836     -1.64510731
C     1.0285039382     3.9222251224     -1.404386296
C     1.4595419059     4.386180127     -0.1312985953
C     -1.2832739759     4.2832855496     -0.6439261257
C     -0.8032540151     4.5546742488     0.6824895156
C     0.5362031788     4.5236452781     0.9496751011
C     -2.3369795518     2.446514862     -2.5210701671
C     -1.8029691433     0.3234142814     -3.6404938606
C     -0.4425812525     0.5939188258     -3.6378029593
C     0.0132164724     1.9026449909     -3.2059672392
C     -0.9233997921     2.8003165023     -2.5745688358
C     -2.7544737856     1.2603518221     -3.1669522396
C     4.4056357168     2.216191481     0.2348390873
C     -3.9212425763     0.5066289924     -2.7570532922
C     -4.6672537837     0.9178608241     -1.6699444108
C     -4.2911181562     2.1234957004     -0.9849557548
C     -3.1946009956     2.9304760875     -1.4408992308
C     -2.6226112179     3.7857841171     -0.4906554855
C     -4.8336169925     -1.4022554442     -0.8671648807
C     -4.1211905171     -1.8462038707     -2.0585106184
C     -3.641875375     -0.9034600619     -2.9593142857
C     -5.099931727     -0.0540697985     -0.6803458818
C     -2.6731507279     -3.9134089497     0.4309737821
C     -4.3985256274     -2.2144435     0.2345663936
C     -3.6009924974     -3.2738477704     -0.3307529202
C     -3.5999694201     0.4825436524     2.6515380595
C     -4.9111522887     0.5308119396     0.6096481189
C     -4.3577400357     -0.230778541     1.6813977009
C     -4.0454359834     -1.640027265     1.4850764456
C     -2.9491954001     -2.2521556002     2.254978417
C     -2.3798524776     -3.4445738663     1.7710355743
C     -2.9126529634     3.6497262373     0.9189556405
C     -4.5238857912     1.9183009394     0.4100433714
C     -3.7628354628     2.612754947     1.3789826631
C     -3.3585750223     1.9041729848     2.5423035012


