96

 C     -0.1612269609     4.0971298001     -1.7423193882
C     0.9701149426     3.4578805708     -2.2784859407
C     2.2264667202     3.5248817856     -1.5228325198
C     3.3007890669     2.5774391099     -1.8068485522
C     4.2284919084     2.2179057887     -0.7684609542
C     3.0885551621     1.626497605     -2.8195462823
C     -1.4931096613     3.6853555184     -2.0571975984
C     -1.7610049864     2.5650470471     -2.863156263
C     -0.6197919751     1.8528477865     -3.4298292925
C     0.7133028875     2.3544823571     -3.1922539539
C     1.8021105778     1.4935530318     -3.4747697716
C     -2.056497315     -0.138200028     -3.6962881807
C     -0.7831220994     0.4538022292     -3.8143197323
C     -3.1868788285     0.5695142591     -3.1157432162
C     -3.0463075903     1.8907877421     -2.6652726163
C     -3.8986693575     2.2595847667     -1.5813185167
C     3.7062955327     0.3306467909     -2.7774645842
C     4.5233278817     -0.059295536     -1.6791439267
C     4.7775470904     0.9168154021     -0.6747241687
C     4.4822636692     -1.4277835306     -1.292108554
C     2.7960583198     -0.5981076437     -3.3793625812
C     2.6951530563     -1.9298077387     -2.9569296014
C     3.6437190393     -2.3491155805     -1.9580527129
C     2.0672910355     -3.9664603693     -1.0884670483
C     3.2669960295     -3.3430946094     -0.9797474042
C     0.3457584107     -0.4556680756     -3.8754534289
C     1.62481766     0.1320657584     -3.8083622395
C     -2.2149635302     -1.5218977383     -3.4572928014
C     -1.0994806827     -2.3845727874     -3.2692211402
C     0.2144969534     -1.8677176201     -3.5505735889
C     1.3912391888     -2.588812567     -3.0528281214
C     1.168624645     -3.6832693511     -2.193916053
C     4.5565893409     -1.8122354907     0.130160849
C     4.6686099138     -0.819683063     1.1411081781
C     4.8349150437     0.5347633546     0.7430535369
C     3.9888056554     -1.0583242902     2.3626059874
C     3.1386674623     -2.2026990172     2.5236098497
C     2.9270685669     -3.1312764553     1.4920423989
C     3.7560733236     -2.9619213786     0.3247773189
C     3.3752893484     0.0249741857     3.0843771175
C     3.4200298     1.3502873718     2.6303852477
C     4.2862281698     1.5927955779     1.5085817711
C     3.9987928097     2.6632677495     0.5884495431
C     2.9800559814     3.5241802871     0.8541210829
C     2.2028871024     -0.4719961262     3.7441427603
C     -0.1215163017     -0.3280675674     4.2149907762
C     1.0729875909     0.3565587307     3.9793593454
C     1.0246521256     1.7143480835     3.4624042366
C     2.2450932357     2.2197101971     2.8487129376
C     2.1260671     3.3482531531     2.026187494
C     1.2683922998     -4.2659302283     0.0899129552
C     1.5998482266     -3.7590232133     1.358556686
C     0.4954687721     -3.4082383077     2.2599924247
C     0.7884584845     -2.4622875007     3.3214942011
C     2.0609192205     -1.8470340446     3.4099434367
C     -0.2631475501     -1.7323647614     3.9039109186
C     -0.174990082     4.5723263117     -0.377937988
C     2.1807300781     4.0728051217     -0.2184251416
C     0.9530032386     4.4720725823     0.3829325217
C     -1.3889607963     0.3032065763     4.0427246966
C     -1.5071879255     1.5816952049     3.4571336568
C     -0.270559953     2.3112873826     3.164165909
C     -0.351749516     3.4250264061     2.2384012425
C     0.8646712982     3.9325864756     1.7286524896
C     -1.4542298541     4.3176442031     0.2086133973
C     -1.5816114693     3.699170895     1.4831239595
C     -2.3114016595     3.9598499512     -0.883474336
C     -3.4535893352     3.2561225279     -0.6357840999
C     -3.7569198059     2.82914566     0.6994046974
C     -3.7530789945     0.8684766473     2.6721864839
C     -2.7829580842     2.9246554768     1.7387579962
C     -2.7562659056     1.8863258562     2.7516109194
C     -4.7176891817     -0.6885807423     1.1713141091
C     -4.6115000271     0.72313723     1.5270280074
C     -4.6034864576     1.6805680023     0.5488835804
C     -4.1799491886     -2.36615944     -0.4571202104
C     -4.7437292926     -1.0935750919     -0.189677249
C     -2.3401774684     -0.744101513     3.7918156546
C     -3.4399867487     -3.0843962591     0.5279935701
C     -3.2412661916     -2.5921922347     1.8342925482
C     -3.9997688303     -1.4249921128     2.1570788153
C     -3.4910220885     -0.467459289     3.1163175574
C     -0.0751311912     -4.3714323436     -0.3440883469
C     -2.3870923627     -3.8255113718     -0.1322209995
C     -1.15676522     -4.0958080716     0.5188469666
C     -0.8834866738     -3.586002087     1.8511421039
C     -1.9674067278     -2.8575629443     2.5222933737
C     -1.6193491003     -1.9784986035     3.5621166393
C     -3.4399636679     -1.6782464538     -2.6933846376
C     -3.5517638652     -2.6567546626     -1.7347637267
C     -2.4567193588     -3.5610542751     -1.529034876
C     -1.2781548969     -3.4803437659     -2.3273777302
C     -0.1339224657     -4.044665448     -1.756779674
C     -4.6613101732     1.2970210539     -0.8609904464
C     -4.6894644484     -0.0665484229     -1.241989169
C     -4.027978119     -0.3755198523     -2.4650525844


