96

 C     -4.6660111955     0.0652503529     1.5629822321
C     -4.9171567607     -0.5204971546     0.2819268907
C     -4.8801107195     0.3253820054     -0.8558671123
C     -4.5374973371     -1.8867548761     0.1156066396
C     -3.7845014583     -2.5723159405     1.1310428353
C     -3.3841430621     -1.9349507915     2.312147023
C     -3.9640508885     -0.648344737     2.5686316929
C     -4.1010501773     -2.388850367     -1.1498912778
C     -3.9330817061     -1.5087515235     -2.2513813921
C     -4.347314128     -0.1523613984     -2.097685035
C     -2.8335103742     -1.7448366966     -3.1335083015
C     -3.1460147279     -3.4546115793     -0.9116339926
C     -0.9168010467     -4.3047523777     -1.3033538799
C     -2.0895151373     -3.7263937679     -1.8320048376
C     -1.9422211491     -2.8709548282     -2.9559167012
C     -1.4773090532     -1.303123964     3.7297927027
C     -2.0608524621     -2.2688608889     2.8869906913
C     -1.1734704815     -3.2198807426     2.2450896144
C     -1.6571661889     -3.900216581     1.0342264115
C     -2.9267971523     -3.5371302759     0.4874900955
C     -0.7342488635     -4.4357901245     0.121588171
C     -2.0785563011     -0.664936681     -3.6623427687
C     -2.3852397235     0.6854053306     -3.366391686
C     -3.6011135858     0.9213484184     -2.6881944667
C     -1.2943584408     1.6535882433     -3.2999168099
C     -1.5655931623     2.917070311     -2.6297698198
C     -0.4717604747     3.7343505821     -2.3285480118
C     -0.7144390934     -1.1000855658     -3.7963918386
C     1.6608742938     -0.7994602317     -3.2629437042
C     0.3627039846     -0.2329137131     -3.6477675319
C     0.0719364258     1.2060413598     -3.4919342946
C     3.9127076914     -0.4156715491     -2.3549055351
C     2.7516946511     0.1040790192     -2.9852524841
C     2.5178033195     1.5430349342     -2.9308946136
C     1.1716850771     2.0753171938     -3.164356178
C     0.8581690602     3.354120662     -2.6436992448
C     0.373244955     -4.0239225886     -1.8641785299
C     0.5413200927     -3.0038459621     -2.8383175406
C     -0.64541907     -2.4804303037     -3.3966309868
C     2.8453231175     -2.6055486256     -1.9739754778
C     1.7377116108     -2.1780913075     -2.8189178906
C     3.9316404283     -1.7378647721     -1.8129721278
C     -2.7752801547     3.091652532     -1.8114745737
C     -3.7694179332     2.0891955479     -1.8563173824
C     -0.4159857016     4.4909896817     -1.078392587
C     -1.4565859066     4.438637208     -0.2010521965
C     -2.6995754327     3.8373724438     -0.6050491798
C     2.9506065169     3.4539143399     -1.4123450279
C     1.7214402894     3.9683456948     -1.6589650795
C     0.9179074638     4.4534936195     -0.5774656219
C     3.4269986465     2.3273887725     -2.1756917128
C     -3.3559821965     3.3872709647     0.5828400235
C     -4.28210475     2.3180354925     0.5447607821
C     -4.5495348317     1.7328325205     -0.7273501404
C     -4.3597320579     1.4898422435     1.6971136666
C     -2.4101732121     3.5274154662     1.675079286
C     -2.3617628816     2.5967288425     2.7223918638
C     -3.4443809828     1.6520149352     2.7681847098
C     -2.0422362788     0.0311744577     3.8829513614
C     -3.2484615085     0.3406728389     3.3373558579
C     0.0778656057     3.8088197309     1.6518561716
C     -1.2146390455     4.1546741793     1.1906120509
C     3.7394506451     1.6301248091     2.1380091416
C     2.6170459597     2.4912329196     2.1192055777
C     1.4366350386     2.0973280571     2.8811664233
C     0.1789883782     2.8000990194     2.7079635263
C     -1.046442337     2.2430759553     3.2544604034
C     1.4440498569     0.7811397099     3.4943157982
C     0.2350602787     0.2602186591     3.9597511758
C     -0.9623431764     0.9917732948     3.919739534
C     1.2027864852     4.0579761018     0.7609473591
C     3.4200286551     3.3396606068     -0.0522762383
C     2.4907308899     3.4394579848     1.0193708563
C     4.5837290343     -0.5546889352     1.9780963439
C     3.6894646949     0.3002729861     2.7133141763
C     2.5038197795     -0.1861422862     3.2721589939
C     4.247999833     -1.8901324803     1.8002963476
C     3.0695790095     -2.4209623262     2.4150206292
C     2.1889732547     -1.6149208739     3.1457460695
C     4.457478241     2.3575674411     -0.0723153595
C     5.1434158923     0.2071673464     0.8900474624
C     4.6817097956     1.5718257895     1.0430357258
C     4.3533308998     -2.4909678083     0.4854620234
C     4.7402041441     -1.7180732133     -0.5943422183
C     5.2006593809     -0.366814951     -0.3871241714
C     4.7696751574     0.4070187059     -1.5303230238
C     4.4828602056     1.7464423102     -1.3973946113
C     1.3598013552     -4.2109813967     -0.8435019746
C     3.2817527811     -3.4368906181     0.3343595379
C     2.6091600542     -3.5841272923     -0.9089289287
C     -0.0782035543     -1.1668970731     3.8561265422
C     0.808568286     -2.0704303431     3.2813567824
C     0.2517291846     -3.1533444698     2.4901870967
C     2.532865699     -3.4594051137     1.5552136794
C     1.1696725586     -3.8265798037     1.5831651523
C     0.6706372045     -4.3933127216     0.3934969668


