96

 C     2.3748842159     1.1077324956     -3.6141838008
C     2.3670460422     2.3310824938     -2.9293074217
C     3.4167444991     2.5060295827     -1.9786154776
C     1.0147333389     3.9788214034     -1.7128896371
C     1.0927712392     3.0255468596     -2.7507021795
C     -1.3963063025     2.8313542262     -2.5863435014
C     -0.1498315721     2.4247172397     -3.2029156285
C     -0.1061317216     1.1423711313     -3.8953113564
C     1.1434362943     0.5234594537     -4.0970062405
C     -2.550013365     2.059968099     -2.8334606714
C     -1.4308063243     3.6893642756     -1.4172968951
C     -2.4689230172     3.5096691603     -0.3935601924
C     -0.2128325641     4.2872785423     -1.0499438047
C     -2.1400324316     3.8274208948     0.9399369695
C     4.2231834114     1.417587693     -1.5418443067
C     3.2768416265     0.0524173415     -3.2683098896
C     4.127173679     0.1358690741     -2.1301890439
C     2.6136051916     -1.1794099355     -3.606665874
C     2.8475433116     -2.3014892729     -2.8556512143
C     1.2895672908     -0.8974666276     -4.088744137
C     1.7500424576     -3.1853079784     -2.5331646354
C     0.4311107238     -2.9131664936     -2.9470107919
C     0.1986141512     -1.7460455076     -3.7912949706
C     -2.5041077442     0.8381821655     -3.5649168711
C     -1.2673384289     0.2808037371     -3.9583830857
C     -1.1112651748     -1.1660816506     -3.8797199611
C     -2.1809616824     -1.9361054514     -3.3576770181
C     3.7666335297     -2.264501201     -1.7385715394
C     4.3498605947     -1.0508969468     -1.2969748941
C     4.5983867846     -0.8881358293     0.1402451831
C     3.3101316567     -3.2661596311     -0.8214089126
C     3.5786994241     -3.1275969883     0.5192372939
C     4.2674679738     -1.962651514     0.9969630922
C     0.279368883     -3.8873141873     1.9865070344
C     2.5929153448     -3.5467023198     1.4879391066
C     1.3293490157     -4.0408392076     1.0656736553
C     2.0204457598     -3.7775956396     -1.2694690404
C     -1.9414457656     -3.0045565573     -2.4360061282
C     -0.6370144443     -3.4268070104     -2.1143626824
C     -0.3865939381     -3.9451847173     -0.7848573708
C     0.9906722887     -4.0968938321     -0.3519827089
C     -1.4553115969     -3.8607515066     0.2110438269
C     -1.0875481336     -3.8544736565     1.5700962269
C     4.6038996572     0.4563261555     0.7303571043
C     4.4671911249     1.5782700338     -0.1125230871
C     3.7659242735     -1.7416630004     2.3399380119
C     3.679626381     -0.4734348884     2.8517824778
C     4.1501869774     0.6396101652     2.0742986636
C     2.7104784339     -2.683965739     2.6203094357
C     1.5726684542     -2.3031009024     3.3892944859
C     0.4067673462     -3.0436664555     3.1370846557
C     3.3749868877     1.7735712245     2.4569337526
C     3.1530646265     2.8478515558     1.5821759025
C     3.8224404671     2.7733273938     0.3223504005
C     3.2272676713     3.3712667695     -0.8441637305
C     2.0783136579     4.1033821724     -0.7273293724
C     0.8963427723     3.1668677717     2.6837113507
C     1.9110494059     3.5989561866     1.7110905904
C     1.4787594159     4.3238711331     0.5734266187
C     -0.41997043     3.6079442988     2.4998570548
C     -0.832392237     4.2847706863     1.3020439725
C     0.0959378432     4.570566544     0.3329020861
C     2.3466083964     1.3271468668     3.3908207863
C     -0.0425016102     1.105639079     3.8700471083
C     1.0830198734     1.9299723669     3.4564590618
C     -2.5026282706     0.7645476488     3.6366041068
C     -1.38602169     1.631978821     3.6622845823
C     -1.5507598535     2.8499840447     2.966319747
C     1.4363032667     -0.9202600143     3.8639468776
C     2.5283134706     -0.0592868332     3.6282864438
C     -0.8863777923     -2.5256632919     3.4587401809
C     -1.0406167556     -1.2014921777     3.9402716292
C     0.1302202269     -0.3261046752     4.044951339
C     -2.32745065     -0.6493948059     3.7629389152
C     -4.1758787771     -0.2777327049     2.4354032556
C     -3.636698562     1.0053180835     2.7909371492
C     -3.6395842399     2.0717515612     1.85745923
C     -2.6310297978     3.0373571077     2.0389161151
C     -4.763781257     -0.4557966959     1.2047657504
C     -1.831218656     -3.1026904918     2.5501674142
C     -3.0441490759     -2.4688711131     2.2340678511
C     -3.3449241346     -1.3059695519     2.98877014
C     -3.98963998     -2.0507134652     -1.8824364318
C     -3.0193247775     -3.02950689     -1.475919097
C     -2.7739116152     -3.3234377904     -0.1230987542
C     -4.7167911893     -1.3666318058     -0.9267196493
C     -4.5448849485     -1.6854125441     0.4592817393
C     -3.5872938825     -2.6366552468     0.8900364444
C     -4.335518801     0.7525870036     -2.1155495677
C     -3.6090134428     0.0230219378     -3.1366804904
C     -3.4474119908     -1.3458241848     -3.0275534025
C     -4.8984384441     0.0753276025     -1.046713958
C     -4.1874281511     1.876220355     0.5190098612
C     -3.5616861292     2.5720828478     -0.6097673156
C     -3.6537963824     1.994911816     -1.8918865581
C     -4.8499016274     0.6463838284     0.2668386167


