96

 C     4.6669242033     1.1697175926     1.1108741462
C     4.876348846     -0.1766725523     0.9578778601
C     4.299812544     -1.1207203309     1.8985364891
C     2.2109443529     -2.8561150456     2.6092720483
C     2.2589442644     -1.6041076816     3.2292685436
C     3.3830273233     -0.7131469736     2.8969093465
C     2.0791946665     1.1802084589     3.7374267734
C     3.240443706     0.7168139686     3.1024398959
C     3.8762542081     1.6371232443     2.21639661
C     -3.6650390779     -2.8658718704     1.021723352
C     -2.7045527197     -2.6857719458     2.0612459798
C     -1.4649115829     -3.4379739338     1.9802438475
C     -0.2898936627     -2.9869049231     2.7200432788
C     0.9611986309     -3.5337495355     2.3703951511
C     -1.5248368697     -0.9428407266     3.4865047487
C     -0.2972291623     -1.7109496987     3.4337501262
C     0.9865232944     -1.0745155476     3.7246304734
C     0.9806414464     0.2813420572     4.0964926741
C     3.5741908455     2.1421253768     -2.279155342
C     4.396073814     1.4597162114     -1.3546829446
C     4.4182892455     2.010654624     -0.0443921178
C     3.491951478     3.0130895416     0.3665087267
C     -0.3444641151     3.9074015763     1.9103881192
C     0.9789133457     3.8560566121     1.4384495455
C     1.1896300631     3.9299940173     0.0062915557
C     2.5090381213     3.5406504767     -0.5131475223
C     2.6590128233     3.1594804473     -1.8646613281
C     3.1964588881     2.8109234485     1.7720394863
C     1.5223049531     2.4531873117     3.4410675339
C     1.9688283653     3.2108879793     2.3130321116
C     4.6023664769     0.014126091     -1.5232168102
C     4.8708880461     -0.7737930941     -0.3735106321
C     2.9347059768     1.4374862873     -3.3743374311
C     3.0603927635     0.0764339703     -3.4943527082
C     3.9145967796     -0.6520359691     -2.5823299719
C     1.6646464854     2.0427144919     -3.6509154051
C     0.5472683299     1.261510579     -4.0474099942
C     -0.6964968311     1.8590257882     -3.8357184657
C     -1.4656194092     3.9289536537     1.0406264122
C     -1.3154589932     3.8964763275     -0.3537258729
C     0.044322146     3.9398625638     -0.8822017403
C     0.2397942007     3.5294071885     -2.2688168425
C     1.5066583415     3.1220542951     -2.7301949797
C     -0.8530493845     3.0052682641     -2.9906813002
C     3.3340873705     -1.9371591908     -2.4062114688
C     3.5106298911     -2.6800615293     -1.2235004348
C     4.3651126472     -2.0987056286     -0.2413690738
C     1.2256888776     -3.6820580541     -1.6328525126
C     2.4537799418     -3.600999116     -0.8285829598
C     0.09997477     -4.2689562141     -1.0557682872
C     0.618831528     -0.1953578935     -4.0309029753
C     1.9031489754     -0.7441114617     -3.813068863
C     2.071939026     -1.9767147204     -3.147777085
C     -1.8944912195     1.0734773958     -3.7689820058
C     -1.8591950352     -0.3302674017     -3.6259259866
C     -0.5480638833     -0.9922693439     -3.6954837873
C     -0.3706880291     -2.2815969254     -3.0640753333
C     0.9767059297     -2.7464735289     -2.7284250601
C     -1.5117230675     -2.9236944751     -2.4196906107
C     -1.2351371543     -3.9368719519     -1.4793441172
C     0.0444272864     -4.5517997742     0.3588987903
C     1.1313921341     -4.2846353459     1.1488435016
C     2.3753735785     -3.9435008273     0.5414444649
C     3.1122263141     -3.2000175558     1.5371614697
C     4.1032498356     -2.3299953625     1.1677225028
C     -3.2702854417     -3.4645404053     -0.2335795961
C     -2.0822119547     -4.1155061416     -0.3276725393
C     -1.2614186804     -4.2653530669     0.8425295649
C     -3.7275425441     -2.6519558467     -1.3258847157
C     -4.0636609296     -0.1475511948     -2.4889348263
C     -2.9976661937     -0.9673970287     -2.9643826645
C     -2.8241213621     -2.2737383409     -2.3600686194
C     -5.0258154685     0.6806830752     -0.5104017072
C     -4.8584131838     -0.5033497834     -1.3445169896
C     -4.6827530144     -1.739188098     -0.7628220264
C     -4.9643657129     0.558605756     0.8668900289
C     -2.8599068223     1.8722687503     -3.0681130741
C     -4.3736670614     1.788472727     -1.175227129
C     -3.9215575742     1.2828749177     -2.4424477241
C     -2.5813314295     3.2613885852     1.7039720806
C     -4.2592059547     1.5509081417     1.6226491609
C     -3.6281923219     2.6576378245     0.9838078544
C     -3.6109900812     2.7518532878     -0.4679816723
C     -2.4467045092     3.3641184625     -1.1329410796
C     -2.1824116002     2.9798188525     -2.4542464922
C     0.1311781017     2.3934357473     3.7767553371
C     -3.6157223323     0.878756189     2.7177770231
C     -2.4792721549     1.3978366358     3.3353955318
C     -2.1010233917     2.7138843746     2.9215177702
C     -0.7574707157     3.1737105855     3.0967230357
C     -4.6251678162     -1.8649673598     0.6914374951
C     -4.7170170181     -0.7347303222     1.4797444968
C     -3.7972163918     -0.5470896194     2.5685436308
C     -2.7422187934     -1.4555172765     2.8372483099
C     -1.465398817     0.4669733596     3.8232329252
C     -0.2125257143     1.0269735013     4.1479930157


