96

 C     3.4291309071     1.6772916575     2.369899196
C     3.5066244382     0.3632547471     2.8321368125
C     2.7251405129     3.8120811575     0.6442475943
C     3.7806049971     3.0240773956     0.3046889098
C     4.213641207     1.9875725342     1.2030748408
C     2.6863956864     1.8807411884     -3.0148729473
C     3.937671473     2.5814884754     -1.0655919867
C     2.9093411992     2.8647642418     -2.0310811722
C     1.7954599082     3.7285613921     -1.6689239892
C     0.488581486     3.5550120511     -2.3172879492
C     1.8105665284     4.2897201217     -0.3647044453
C     -0.6447962917     4.1108079525     -1.6986876099
C     4.7810097238     0.9673645542     0.4053548445
C     4.7776771031     -0.3916091824     0.8353907654
C     4.2210197069     -0.6606925396     2.1213993704
C     4.6858526483     -1.3993016173     -0.1685343229
C     4.5922466845     1.3288796065     -1.0090764976
C     3.3904497257     0.629154672     -3.0018157098
C     4.3181253042     0.3203114804     -1.9746727978
C     4.4048283201     -1.0392270547     -1.5639081936
C     4.0574934986     -2.6339867837     0.1034853927
C     3.4840557897     -2.9028052585     1.3912476696
C     3.5542173231     -1.8971876974     2.3829290828
C     2.3657581656     -3.766767572     1.4261775067
C     3.3614574949     -3.0461456922     -1.0992289361
C     2.2001386392     -3.8080338396     -1.0615519226
C     1.8133151494     -4.3143373571     0.2355453742
C     -0.4688698997     -4.6249227093     -0.5009124579
C     0.4518265699     -4.6252492083     0.5097865415
C     2.4945489989     -0.3764980451     -3.501019119
C     2.4960410239     -1.6930120203     -3.0152507498
C     3.5493974376     -2.0255134769     -2.1022302808
C     1.2492054325     -2.4448381549     -2.9899508961
C     1.1575410932     -3.580036568     -2.0881981766
C     -0.1128428143     -4.1193770872     -1.8259115518
C     1.2831608275     -3.5795141914     2.3878815647
C     1.2374406588     -2.4288345256     3.20464903
C     2.4255530313     -1.6408521923     3.2616539468
C     -0.0357113327     -1.8138039752     3.4853863071
C     -0.0331791017     -0.3922969532     3.8338504256
C     -1.2584548191     0.2844076169     3.8538863
C     0.0978603395     -4.114227677     1.8332348345
C     -1.1703258311     -3.5689453189     2.0938716145
C     -1.2573810022     -2.4306426981     2.9921612738
C     -3.5558630138     -2.0046986106     2.1031549876
C     -2.5011550083     -1.6736921886     3.0151627419
C     -2.4943218495     -0.3557207072     3.4969147736
C     -3.3720636982     -3.0291372068     1.1032674071
C     -2.2138458791     -3.7958398038     1.0679187776
C     -1.8290851566     -4.3076574583     -0.2276288574
C     1.1555102437     0.4281012357     3.7066308777
C     2.3806205768     -0.2518488482     3.4986542358
C     -1.3626461597     1.6695191095     3.5556466542
C     -0.2355859368     2.4394749983     3.195036653
C     1.0707364486     1.8292572351     3.3331162646
C     2.2173089131     2.447956378     2.6693347865
C     1.9734993657     3.5838903996     1.8827414261
C     -1.7786042947     3.7408716113     1.6523311994
C     -0.4724348197     3.5639981877     2.301227118
C     0.6631831447     4.1133047795     1.6809440372
C     -1.7914420954     4.2981090058     0.3464062186
C     -0.5879869268     4.6201221372     -0.3447345017
C     0.6084330095     4.6187179724     0.3254446697
C     -2.6770182205     1.9007867467     3.0038955271
C     -3.9254559399     2.6006629186     1.0524824259
C     -2.8959771001     2.8827058649     2.0171093252
C     -4.4072853726     -1.0165980469     1.5618241929
C     -4.3150691107     0.3438256773     1.9684442094
C     -3.3861396259     0.6520315473     2.9946435814
C     -4.5851037654     1.3505510015     0.9997797626
C     -4.2038442922     2.0009580728     -1.2143656037
C     -3.7666003203     3.0384311824     -0.3191390322
C     -2.7079532644     3.8211132154     -0.6610905063
C     -3.5034314092     0.3688312428     -2.838467971
C     -3.420603628     1.6839450042     -2.3802357903
C     -4.6897760225     -1.3797793612     0.1675507523
C     -4.2219717017     -0.6500410798     -2.1246200203
C     -4.7775208796     -0.3747854377     -0.8394397548
C     -4.7753381764     0.98549547     -0.4135462434
C     -2.3793110073     -3.7614827922     -1.4199273019
C     -3.5601867206     -1.8900211583     -2.3823751175
C     -3.4940972115     -2.8928900988     -1.387635657
C     -4.0664294122     -2.6178247817     -0.1007008389
C     1.2612842401     0.267545059     -3.8599443441
C     0.0332737717     -0.4041192748     -3.837852622
C     0.030044538     -1.8245567658     -3.4850591157
C     -2.4304958525     -1.6409428071     -3.2618656206
C     -1.245589887     -2.4335610846     -3.2024576508
C     -1.2959701348     -3.5815550959     -2.3821917208
C     -1.9572509228     3.5861007765     -1.8988789699
C     -2.2056691607     2.4487724183     -2.6820093523
C     -1.0616192319     1.8234094317     -3.3438953524
C     0.2471685572     2.4287420916     -3.2076688103
C     1.3710931397     1.6531244263     -3.5659240663
C     -2.3799335765     -0.2528614909     -3.5030961797
C     -1.1520771038     0.4214774531     -3.7131390903


