96

 C     -1.2717235295     -4.3860091517     0.5740753143
C     -0.1822400665     -4.2457642388     1.4460544546
C     1.0976686666     -4.4549703382     0.8582022124
C     2.296925545     -3.9190613799     1.4442186201
C     2.2002286466     -3.1662192893     2.5874223386
C     -2.5425470038     -3.748422107     0.8549236159
C     -3.7260212504     -1.9256827956     1.842470018
C     -2.6749534352     -2.8577806362     1.9524489776
C     -1.5062936035     -2.5557220483     2.7891149533
C     -0.3052842587     -3.3429448534     2.5947689191
C     0.895916753     -2.8645831258     3.1508003466
C     4.422223049     -0.3026047286     1.7940303723
C     4.0549238173     -1.6699900633     1.8162726049
C     3.0736693438     -2.027748958     2.7843425247
C     2.3222880404     -1.0410658569     3.4776467048
C     -0.9657383414     1.5727625223     3.699514858
C     0.1388612422     0.7309112809     3.7811877686
C     1.4355268532     1.2741114055     3.4091933087
C     2.5504375684     0.3419820256     3.2940952971
C     3.6857625382     0.6768428495     2.5258973681
C     -3.6752912787     -0.6678166407     2.5500449051
C     -2.5355344219     -0.3298558383     3.3102663543
C     -1.4199601887     -1.261526385     3.4226704595
C     -0.1211657662     -0.716827561     3.7849035173
C     0.9829569915     -1.5590101807     3.7001976039
C     -2.3063304551     1.0539250051     3.4868546354
C     4.1028879071     -2.4266598117     0.5617727346
C     3.2133211954     -3.5193089857     0.3904685701
C     4.8767650953     0.3464438975     0.5795849519
C     4.8731346379     -0.35046676     -0.6074936753
C     4.4562561371     -1.7382689749     -0.625388636
C     4.4607976135     1.7344815805     0.5999089727
C     4.1009275833     2.4230761512     -0.5851788385
C     3.2129854315     3.5162251287     -0.408701671
C     -0.8819051474     2.8760915404     3.1443030003
C     0.3160346114     3.3521756563     2.5793505819
C     1.5181642496     2.5657238122     2.7698888576
C     2.6819390388     2.8643685586     1.9252358706
C     3.7323689955     1.9318284256     1.8129352251
C     2.5431595782     3.7505619986     0.8248981343
C     3.7206821267     -1.9351932086     -1.8341524672
C     2.6691006764     -2.8671512657     -1.9403495458
C     2.536212582     -3.7532605863     -0.8392196083
C     1.5006106839     -2.567850224     -2.7782362469
C     0.2991681556     -3.3536183337     -2.5806963285
C     -0.9017725868     -2.8768611795     -3.1386706338
C     3.6706388015     -0.6801863683     -2.546839179
C     2.3026310085     1.0384913401     -3.4906487421
C     2.5310662763     -0.3446867478     -3.3084240129
C     1.4149821571     -1.2761906614     -3.417044862
C     0.1164835208     -0.7322557718     -3.7814868345
C     -0.9880990951     -1.5734797064     -3.6933639628
C     4.0452420016     1.6664321621     -1.8393738622
C     4.4119034229     0.2988444438     -1.8192715483
C     3.0585712016     2.0247411305     -2.8017095167
C     0.1756337979     -4.251701516     -1.4283268513
C     1.2650380986     -4.3890036843     -0.5557875253
C     -2.2062452573     -3.1754803481     -2.5740615249
C     -2.3033626627     -3.9236416735     -1.4278230043
C     -1.1043922226     -4.4578139638     -0.8396305282
C     -3.0790630176     -2.037343641     -2.7756068809
C     -4.0601218881     -1.6751164355     -1.8090020993
C     -4.4266775945     -0.3074509058     -1.7923228591
C     0.9623155575     1.5571964348     -3.7054086236
C     -0.1427487596     0.7156310981     -3.7836637681
C     -1.4391125799     1.2610532465     -3.4138801583
C     -2.5545384883     0.3300103337     -3.2949925698
C     -2.3271438336     -1.0538970194     -3.4729138396
C     -3.6896774094     0.6686110916     -2.5281610561
C     -4.1084974693     -2.4266596443     -0.5514426224
C     -3.2195328293     -3.5190989951     -0.3757038846
C     -4.4614891228     -1.7332607386     0.6329098159
C     -4.4641202091     1.7344907538     -0.606486063
C     -4.880861792     0.346775744     -0.5805254125
C     -4.877596154     -0.345311641     0.6093732286
C     -3.2153248756     3.5196251124     0.3948788179
C     -4.1038671177     2.4276906335     0.5757944203
C     0.879201194     2.8628057481     -3.1554873218
C     -0.3184758608     3.3418476169     -2.5924851683
C     -1.5210384727     2.555298051     -2.7798321762
C     -2.5453743453     3.7485810919     -0.8396626866
C     -2.6846502626     2.8580102544     -1.9363949046
C     -3.7355897058     1.9265089411     -1.8203045279
C     1.0951745215     4.453087078     -0.8641200017
C     2.290711034     3.9165120466     -1.4571049257
C     2.186926546     3.1636935434     -2.5996996088
C     -1.2725787421     4.3854629864     -0.5662225965
C     -0.1882546704     4.2446099305     -1.4445152877
C     -2.1894648341     3.1754397793     2.5872954031
C     -2.2928325278     3.9236664179     1.4416457127
C     -1.0970035326     4.4571737348     0.8464903582
C     0.1863094174     4.2503357186     1.4277238703
C     1.2707131704     4.3870279385     0.5488664433
C     -4.4160104307     0.3086598222     1.8185044889
C     -4.0485994354     1.6761174172     1.833049426
C     -3.0617305492     2.0377914886     2.7939217116


