96

 C     2.6001735518     2.5989865861     2.6179321143
C     3.3387526686     1.4151109071     2.6394343275
C     4.3674203588     1.2918572639     1.6352640049
C     4.8117337036     0.0043898132     1.2058734002
C     4.3262659293     -1.1154916531     1.8292218101
C     3.3050154916     -1.0098109623     2.8622761857
C     2.7002469217     0.2299449479     3.1939390461
C     1.2873892883     2.6566684398     3.1521504959
C     0.5719048259     1.4956963307     3.5579949971
C     3.401273309     -3.2686256438     -1.0083534457
C     4.2584196443     -2.3695199706     -0.3238841272
C     4.1404057081     -2.3476200987     1.1049000435
C     3.1099292412     -3.0561947875     1.7736859164
C     0.9590408676     -4.1433061954     1.6241872773
C     2.2496597227     -3.9390023142     1.0845835755
C     2.4037216836     -4.0301481928     -0.3265326313
C     -1.5002075444     2.7187480681     2.9827243854
C     -0.8824929066     1.5276653743     3.4882890084
C     1.2898357816     0.2368783922     3.5691565376
C     -0.9331923976     -0.9581498852     3.5154673144
C     0.5236785581     -0.9962239859     3.5671957061
C     1.2120530506     -2.2461650897     3.2241543332
C     2.5782140228     -2.2062125969     2.8503018666
C     0.4809736327     -3.3575345676     2.7424583177
C     4.6843257663     -1.1308324415     -1.0144930342
C     5.0239590457     0.0100922588     -0.2342699294
C     2.8306084809     -2.9104853234     -2.2954092357
C     3.1974610322     -1.7497365156     -2.9242201385
C     4.1743018134     -0.8660079058     -2.3189653416
C     1.467525248     -3.3558196093     -2.3517406378
C     -1.92356184     -1.8763302475     -2.963331359
C     -3.229036813     -1.9963668479     -2.4369576254
C     -0.9139237796     -2.7971984213     -2.4978841282
C     0.4475613587     -2.5813277219     -2.949151879
C     0.8308478301     -1.3202160912     -3.5773498157
C     2.2015871462     -0.9669748986     -3.593852661
C     -0.1602538098     -4.4184954606     0.7878830138
C     -0.0667037732     -4.2419225354     -0.6311713442
C     1.2247898686     -4.122977976     -1.1684252798
C     -2.4575559908     -3.5354959241     -0.6657861078
C     -1.1831855451     -3.6468043331     -1.3529186478
C     -3.4865222992     -2.8031849357     -1.2777469198
C     3.8502560647     0.4566999505     -2.7391784823
C     4.1310138031     1.5894398394     -1.9246999982
C     4.7602527484     1.3391923966     -0.6705314578
C     3.2593297751     2.7085625657     -2.0422908624
C     2.6257174554     0.3961477245     -3.517543851
C     0.2892599742     1.1271784656     -3.6178462858
C     1.6901608102     1.439331224     -3.4914865884
C     2.0761928496     2.6448406329     -2.8276348889
C     -2.0125275353     1.8025476049     -3.226666037
C     -0.6659569195     2.1344858982     -3.1973455681
C     -1.5308762054     -0.5908644108     -3.5432345072
C     -0.1364374645     -0.2543570195     -3.7036821918
C     -2.4574941104     0.4686530221     -3.507170978
C     2.9930294836     3.575517873     -0.9082885556
C     3.5184406231     3.252207578     0.3718503868
C     4.3949812085     2.1403740195     0.4916098997
C     2.696991047     3.5463587507     1.4962453447
C     -0.270981042     3.2548237786     -2.3464178739
C     1.0968051705     3.5051528822     -2.2285870291
C     1.6728173698     4.0937054115     -1.0443208349
C     -1.1771578917     3.7502114991     -1.3110903635
C     0.8525009061     4.3825843645     0.0653558639
C     1.4466187529     4.1833096296     1.3509137283
C     -2.9796556669     2.444951939     -2.3701382754
C     -2.5545640305     3.2933979977     -1.3165731589
C     -0.5997356217     4.2704002386     -0.0890169696
C     -1.3672420304     4.1416110935     1.1032782617
C     -0.7203821618     3.7512635887     2.3534434625
C     0.6245082571     3.7325630527     2.4569399271
C     -5.0953387343     0.2227325102     0.9167387812
C     -4.5139908212     1.4698642391     1.2778083228
C     -3.5514253129     1.5497746543     2.3232742149
C     -2.7312497556     2.6878561244     2.3004066204
C     -4.691054215     -0.9203858501     1.6029600547
C     -2.6367902892     3.5466563176     1.1186339219
C     -3.3103074916     3.2057974114     -0.074216426
C     -4.3733465375     2.2784191475     0.0650913311
C     -4.0918631373     1.5540004162     -2.2316936707
C     -5.2626853125     0.1937811554     -0.5250717034
C     -4.8062234065     1.4828991707     -1.032334535
C     -4.4744974326     -2.1579124512     0.8780166995
C     -4.5396501875     -2.1628301351     -0.5091960975
C     -4.9528827353     -0.9671009672     -1.219677811
C     -4.1607178269     -0.8951234928     -2.435580924
C     -3.7687960298     0.3283907708     -2.9409991516
C     -1.3316384372     -4.0001346969     1.4766807177
C     -3.4340030773     -2.8894424947     1.5330574683
C     -2.507143028     -3.6631296016     0.7952385294
C     -3.0330041965     0.3527860518     2.9725458325
C     -1.6469056439     0.3085151194     3.4523468551
C     -3.6888205662     -0.8523858109     2.6337551635
C     -2.9703818512     -2.0864435731     2.6378063228
C     -1.6411867281     -2.1621210531     3.1099495451
C     -0.9239817176     -3.2973398027     2.6636284327


