96

 C     -3.1239865053     -1.5822005922     2.4308508885
C     -4.2049916956     -1.4210944654     1.5414448153
C     -4.8557951146     -0.1464045458     1.3578674506
C     -2.6678424411     -0.4150041763     3.2002818016
C     -3.327596157     0.8030303194     3.0085475533
C     -4.4102046477     0.9510250443     2.0728257147
C     -0.6125203243     -1.5720898602     3.7424520611
C     -1.3000911718     -0.3693648948     3.7218625588
C     -0.5294769554     0.881339755     3.788370709
C     -1.2156862439     2.0862110798     3.4047100056
C     -2.5788737501     2.0425790077     3.03038837
C     -0.4709354854     3.1654536679     2.8826973698
C     0.8088106443     -1.6282037387     3.8641259151
C     2.9108018629     -0.5545581418     3.3785933251
C     1.5829756282     -0.4349380525     3.8446184849
C     0.9142890609     0.8474744298     3.7507317311
C     1.6653217128     1.9816769092     3.1850712311
C     0.9440100893     3.1035223987     2.7727001208
C     -5.0028180009     1.2122396598     -0.6862284505
C     -4.459009994     2.3306243645     0.047926484
C     -5.2230332558     -0.0110855128     -0.0333290445
C     -4.238790545     2.2260738267     1.4111330127
C     -3.095769618     2.8764185126     1.9947549029
C     -2.2165291726     3.6722619641     1.2006352157
C     -0.9605036232     3.9099831332     1.7596240846
C     -4.4197177729     -1.2344473096     -1.9918815489
C     -4.1258541141     0.02677587     -2.6397130302
C     -4.8789413192     -1.2512543867     -0.6852780706
C     -4.3822831985     1.21919759     -1.9897219561
C     -3.3895779478     2.2660115037     -2.028907641
C     0.2467498177     2.699413215     -2.9017842849
C     1.3572607876     3.4163532204     -2.4188652101
C     -1.0536383264     2.9476322168     -2.2965523306
C     -2.1551517082     2.1093743279     -2.7055609349
C     -1.9042233335     0.8521238245     -3.416430042
C     -2.9034356316     -0.1371775821     -3.3792072204
C     -2.3444634837     3.6364520031     -0.2622774745
C     -3.4660646726     2.9928335487     -0.7947094187
C     0.1596027955     4.2871153978     0.9463727841
C     0.0640718351     4.225697693     -0.471350199
C     -1.1538347752     3.7340061883     -1.0890472199
C     1.2831318177     4.1062426685     -1.1553879045
C     -1.6716198459     -3.7115853763     -1.8392659845
C     -2.9023182808     -3.1428641156     -1.4855137853
C     -3.4200121713     -2.1820249175     -2.3958963742
C     -2.5409152659     -1.5303344446     -3.3180212309
C     -0.1823549862     -0.960633129     -3.7341097191
C     -1.2071041746     -1.9429728698     -3.480039545
C     -0.8565274341     -3.1670400148     -2.8699515055
C     2.175725632     -0.3863215284     -3.6101985306
C     1.1996404412     -1.3676169004     -3.5389375259
C     0.4983342569     1.4338817151     -3.5958053494
C     -0.5350431475     0.4407550102     -3.7027420817
C     1.8389029499     0.9981279911     -3.7292346215
C     -3.2345673123     -3.0456404786     -0.0646252645
C     -4.2445540147     -2.1350740545     0.2945038277
C     -0.8030342891     -4.3221709914     -0.8517620218
C     -1.02357675     -4.1292578966     0.53084123
C     -2.2372835531     -3.4133952631     0.9372956734
C     -2.2227242982     -2.6852587837     2.1778356589
C     -1.0535930946     -2.7323063316     2.9839320024
C     0.5159721619     -4.325534591     -1.3944556861
C     1.6280692441     -4.3247513265     -0.569351483
C     1.4543308194     -4.3159169576     0.8419206384
C     0.1578288932     -4.1645122152     1.3994532993
C     0.0844593821     -3.4733136579     2.6439714671
C     1.5541727218     -2.6077808158     -2.8446381749
C     0.5163448156     -3.5001686454     -2.5682799252
C     2.7745899523     -3.5386050924     -0.9108930733
C     2.7632481282     -2.6541754286     -2.002423409
C     2.6221110889     -3.6411857001     1.4052039905
C     2.5143552791     -2.883194867     2.6044172729
C     1.2491966485     -2.8212803239     3.2278964422
C     3.3695205483     -1.7591227462     2.7502408474
C     3.432700941     -3.1818510169     0.3372281448
C     4.2379290531     -2.0135900758     0.4386496239
C     4.2975435493     -1.3948662991     1.7114101957
C     3.9423659317     0.8348579484     -2.716101623
C     3.4520375382     -0.4934701018     -2.9059149869
C     3.6864898971     -1.5236092743     -1.978012093
C     4.6535195808     1.1454094782     -1.5588032048
C     4.9164381607     0.1159325895     -0.5973345534
C     4.4554145969     -1.2118307141     -0.7680950205
C     3.4368413214     3.266215426     -1.3601127362
C     2.7085910722     2.949245825     -2.5740446493
C     2.9485872178     1.7560833139     -3.2252356428
C     4.3708295445     2.3814679901     -0.8534125858
C     1.3467386808     3.8936878208     1.6148622041
C     2.5467281969     3.6445150659     0.927981182
C     2.5338513657     3.9331274283     -0.4663323858
C     4.5269182811     0.0177797332     1.8199750975
C     3.6123540213     0.5604835565     2.7829379777
C     3.0021707385     1.8068064226     2.6000293015
C     4.8799271567     0.7494856495     0.7111218273
C     4.4107474249     2.0963628115     0.5728610399
C     3.4480263173     2.631831088     1.4648312186


