96

 C     4.2651125556     -2.7076357348     -0.1466503455
C     4.460950866     -2.0610429183     1.0610063684
C     5.0193678765     -0.7291024316     1.0943059048
C     4.4090906723     -0.0419690514     2.2095134799
C     4.2077829014     1.3245556346     2.1634718214
C     3.1695572794     -3.6161326098     -0.2995382311
C     -0.8949481999     3.4719278935     2.4947631903
C     0.4212322378     3.0396696955     2.7548040703
C     1.9636925099     1.1067306493     3.2146489536
C     3.0242135723     1.9031098306     2.7330567319
C     3.3704894176     -0.8809662354     2.7475375034
C     0.9942295853     -1.2160121938     3.1883231509
C     2.1430770887     -0.344583658     3.1899054208
C     -1.4107043723     -1.4527050691     3.4378074494
C     -0.2935856534     -0.6212757736     3.4795558702
C     -0.5086965388     0.8251563939     3.4277109937
C     0.621502958     1.6914875092     3.2530061247
C     -1.8552646062     1.311029252     3.1597423602
C     -2.0030010273     2.6280741183     2.6933869546
C     2.2768156232     -2.9410214165     1.8946253999
C     3.4253104187     -2.1520403095     2.0685959653
C     -1.5386559342     -4.4409261594     0.6756594568
C     -0.2457950624     -4.1883847996     1.2028264451
C     -0.1438151823     -3.2833369503     2.3495324196
C     1.067943741     -2.531749494     2.5877584272
C     -1.3336400989     -2.7916518605     2.920721276
C     2.1834618698     -3.7905611574     0.7059750014
C     0.636135168     -4.5008703352     -1.0746110517
C     0.893040859     -4.327290106     0.3116402947
C     1.4777260729     3.7031263036     2.0079386638
C     2.7443578516     3.1206731765     1.998739613
C     -1.2138607583     4.3397345239     1.3651117237
C     -0.2223488931     4.7619708248     0.5213813524
C     1.1443169983     4.4813282948     0.8589428292
C     -2.5084006256     3.9664683174     0.8463330988
C     -2.7452239816     3.9129080808     -0.5626713113
C     -3.7492090727     3.0053825635     -0.9774268526
C     -2.7518411224     -0.9513833849     3.2133782579
C     -2.9737803586     0.4031353541     2.9319225291
C     -4.0437995713     0.7541941654     1.9936508135
C     -3.993393372     2.0394967562     1.30257695
C     -3.0402378539     2.9811393914     1.7210716974
C     -4.4173223327     2.1488305397     -0.0548820924
C     1.8369571989     4.2572133859     -0.3606766386
C     3.0012282562     3.4794702528     -0.4251839788
C     3.5734136086     3.1311505741     0.8302773948
C     4.5115307978     2.0559033467     0.9474957292
C     4.9011321519     1.3675181338     -0.1880026925
C     0.8679316397     4.2518860305     -1.4386949676
C     -0.2369323178     2.9095228087     -3.0808285198
C     0.9744091412     3.2707689952     -2.4622964829
C     2.0875102627     2.3341243393     -2.4811946646
C     3.1924304681     2.5756658776     -1.5638090879
C     4.1827147169     1.5950335127     -1.4402158704
C     -1.6192112803     4.1869150597     -1.4678271127
C     -0.3960547292     4.6506547235     -0.920390273
C     -1.500867768     3.4116846474     -2.6522877075
C     4.4092049409     -1.955153704     -1.386875607
C     5.2272686452     -0.0341442213     -0.1054374593
C     4.8112379146     -0.6400940843     -1.3509056675
C     2.7592953045     -3.5270129773     -1.6830782331
C     3.3514951133     -2.3560079625     -2.2729035612
C     1.5057213465     -3.9097310721     -2.044999145
C     -0.4280409563     1.5715383332     -3.5902286413
C     0.5676053868     0.6034257937     -3.5011768045
C     1.9020433094     1.0175536577     -3.0486795755
C     2.899297434     -0.0036700759     -2.8365561145
C     4.0728807376     0.3400467377     -2.1171272427
C     0.1374375095     -0.7876081407     -3.4778466067
C     1.15382542     -1.7899506192     -3.2636748476
C     2.535787007     -1.4122951995     -2.9498174067
C     0.7190233301     -3.0864659271     -2.931331776
C     -1.8212822518     1.2508867664     -3.5187230942
C     -3.524235502     -0.2297904526     -2.5318632337
C     -2.2654279038     -0.059649243     -3.2585477708
C     -1.2739637039     -1.1140161145     -3.3036448776
C     -4.6409255779     -1.4645893798     -0.6945920176
C     -3.8105514584     -1.4864904137     -1.8531985969
C     -2.9004093119     -2.6029015218     -2.0245381042
C     -1.6678774163     -2.4226160864     -2.8078818179
C     -0.6557141764     -3.3836708027     -2.6748825428
C     -5.0004997651     -0.2140320052     -0.0801952611
C     -4.8076717436     0.9500718671     -0.7639704024
C     -4.1705661999     0.9408318575     -2.0541227732
C     -3.6110086643     2.2514189592     -2.220730396
C     -2.4862425431     2.4108699579     -2.9891558807
C     -3.5109014556     -1.9980912474     2.5997620747
C     -4.4568420338     -1.6696123952     1.6333636766
C     -4.732740545     -0.299077047     1.3513339692
C     -3.627257973     -3.4827592589     0.1982305999
C     -2.7291763186     -3.9065296307     1.2667160296
C     -2.6363343984     -3.1342417264     2.4129186889
C     -4.4641061809     -2.4055939193     0.3763888675
C     -0.6847020542     -4.352607698     -1.5984429524
C     -2.9325809268     -3.6403686541     -1.0508127044
C     -1.7536699902     -4.4078716579     -0.7563065989


