96

 C     1.0113450178     3.4728240373     -2.4667205193
C     2.1939338708     2.7597103238     -2.6415669114
C     3.1965418496     3.0026942386     -1.6564457389
C     4.2825741761     2.0917173014     -1.4710962693
C     4.3224952047     0.9434644018     -2.242254776
C     3.2389181783     0.634745603     -3.1597712053
C     2.1310847558     1.4788005409     -3.3418388397
C     -0.212232017     3.0406769428     -3.0654397485
C     -0.3583890816     1.7343313472     -3.6132826621
C     4.9979630563     0.8333478777     0.5106546131
C     5.0916541008     -0.3656563069     -0.3066243798
C     4.5931037683     2.0312611792     -0.0575656271
C     4.759188382     -0.3033062281     -1.6499518675
C     3.9851647337     -1.3670155393     -2.2279706272
C     3.5952361653     -2.4916470013     -1.4560898504
C     2.4853039427     -3.197615277     -1.9466890081
C     -2.7636850262     1.9273993493     -3.0816177413
C     -1.6859943036     1.1481984176     -3.6031393411
C     0.8246137637     0.8958599124     -3.6989617114
C     -0.6716679265     -1.1407897697     -3.6289948869
C     0.6638568571     -0.5370433231     -3.7412077393
C     1.8257506243     -1.3667624622     -3.4736829365
C     3.078329267     -0.7842938879     -3.1820574001
C     1.6572672722     -2.6794889444     -2.9807768065
C     3.5178899415     -1.6151830211     2.6458607016
C     4.5082688949     0.4691619868     1.8049187676
C     4.4277783522     -0.9838854454     1.8249187313
C     3.8689238612     -2.5369308919     -0.0239676629
C     4.6650944397     -1.4928872713     0.5059462944
C     2.7730757119     -2.7400704069     2.1746760211
C     2.8904244077     -3.1970043259     0.8524370514
C     2.6964831948     -0.8433334456     3.5345314144
C     2.6974947532     0.5717327472     3.4566931778
C     3.5542753899     1.2576419758     2.4952039259
C     3.0699632743     2.4921730565     1.8608604591
C     3.6386334428     2.8573137716     0.6294062111
C     1.5102132771     1.2056134333     3.8671670604
C     1.4769983599     -1.5713066821     3.731868614
C     -0.9916486682     -1.5245213092     3.6017263637
C     0.2588083664     -0.9304678691     4.0328842812
C     0.3482603099     0.4773084064     4.2306434268
C     -3.3230800714     -1.1319973309     2.9103735978
C     -2.1868303662     -0.6772049049     3.5964319393
C     0.340519641     -3.2720776584     2.3641553126
C     1.5059211836     -2.7324416939     2.8913023275
C     -1.9925135327     -3.9320499552     0.8991347432
C     -2.1350632839     -3.1236516664     2.0630113529
C     -0.9525741007     -2.7265651577     2.7993847072
C     -3.3010007061     -2.330905855     2.1415210668
C     0.4852906125     -4.0018925039     1.0968135231
C     1.6493849324     -4.0280062981     -1.0903300981
C     1.7370720994     -3.8997074329     0.3101604852
C     -0.6865430096     -4.3541775311     0.4313066383
C     1.0673143384     2.4512750441     3.2660467765
C     1.7336848379     3.0260747234     2.1850156875
C     0.9248083864     3.7557046503     1.1925322862
C     1.5286622916     3.9817857223     -0.100684252
C     2.8351587801     3.5239535387     -0.3715448758
C     0.7000357302     4.1430192915     -1.2323171685
C     -0.3498931213     2.5336102128     3.4063501791
C     -2.5097849535     2.8201455182     2.4235850598
C     -1.150477458     3.2171140571     2.4638733432
C     -0.5163012464     3.822269952     1.3092164431
C     -1.3538698492     4.0524001243     0.1222190452
C     -0.7118703288     4.2215288335     -1.1117946658
C     -2.0586788738     0.7741546387     3.7608167536
C     -0.7953637072     1.3181336175     4.0154111561
C     -2.9717773317     1.6504308289     3.0988532008
C     -3.3162268205     3.0054160961     1.2365804326
C     -2.7532438315     3.5863435441     0.0844786521
C     -3.3303343191     3.1583997867     -1.1481260398
C     -2.5168588848     3.1245939691     -2.3536112501
C     -1.2667835096     3.6697979575     -2.3360078305
C     -4.2872401132     1.9588818618     1.1735594801
C     -4.68830729     1.3816504872     -0.0621511627
C     -4.2371760832     2.0669432847     -1.2211200515
C     -4.7368582689     -0.8357919008     1.0477644757
C     -4.2601696277     -0.2235979409     2.265774955
C     -4.0781121684     1.135800637     2.3452351167
C     -4.6573494618     -0.7415230313     -1.374788175
C     -4.9193266232     -0.0699274555     -0.1321360348
C     -2.8062125393     -3.7167559698     -0.2381580457
C     -4.1154585149     -2.0445554288     -1.4186977504
C     -3.872473274     -2.7827185806     -0.2267337114
C     -4.1776134811     -2.1567065105     1.0033807036
C     0.3995503908     -4.1810983025     -1.7463186087
C     -3.1577364468     -2.1150133864     -2.5293690861
C     -2.0455227912     -2.9789876942     -2.5041631568
C     -1.9862412427     -3.9192851257     -1.4360535644
C     -0.7466749691     -4.4271378902     -1.0061058849
C     -3.9000958188     1.3252019751     -2.436269378
C     -4.0787219936     -0.0236446865     -2.4918670652
C     -3.0738917437     -0.8476093646     -3.1319243844
C     -1.8314865438     -0.2984240951     -3.6118346644
C     -0.8105822302     -2.5260420365     -3.152095028
C     0.3510233668     -3.2524404065     -2.8400003653


