96

 C     -3.4497620041     -0.9365710844     -2.5615958735
C     -2.4454801178     -1.0440009003     -3.5374651769
C     -4.7086731278     -0.552606205     -0.0447474564
C     -4.2566973408     -1.8473234556     -0.3633765964
C     -3.6827077168     -2.0811062129     -1.6794716024
C     -3.8577724197     -2.6490756405     0.7416098348
C     -3.6031239771     -2.0645757337     2.0230104138
C     -3.8734003279     -0.7082621858     2.2950191676
C     -4.6113195512     -0.0234440474     1.2917985791
C     -2.8996523788     -3.7063242985     0.5751704482
C     -2.3975018603     -3.9762383563     -0.6719041619
C     -2.8423936521     -3.2205926839     -1.8199590544
C     -1.7718981622     -3.2509458943     -2.7608653248
C     -1.6120770948     -2.2043656637     -3.6402905809
C     -2.0311704448     -3.7531434686     1.718696362
C     -0.6561911447     -4.0620575337     1.5759363723
C     0.1743087019     -3.5839323176     2.598975433
C     -2.9672421265     1.4423486763     3.0390908602
C     -2.945418153     0.042431664     3.149757084
C     -1.7295697536     -0.5826764625     3.6522273395
C     -1.5595328254     -2.0126789248     3.4382761273
C     -2.4728326774     -2.7213852683     2.6138385128
C     -0.2737292406     -2.5859474604     3.5300330259
C     2.0354556071     -1.6772205732     -3.5521663539
C     -0.2926319669     -1.8105895456     -4.0385718686
C     0.8515233716     -2.4335799618     -3.4902580693
C     -0.6022955727     -3.8667666046     -2.1416448687
C     1.7015447643     -3.5238071774     -1.3640056057
C     0.7028228813     -3.4263386356     -2.4174649613
C     3.7943742422     -2.5368443868     -0.4203661179
C     2.965463089     -2.7955966066     -1.5458701763
C     3.1171751055     -1.914961017     -2.643638529
C     -0.0802978181     -4.2763267953     0.2356156181
C     -0.9856825985     -4.2987604067     -0.8426687216
C     1.5765210582     -3.4118352992     2.4014118482
C     2.1657390351     -3.5867244413     1.110507779
C     1.3052737165     -3.9355267874     -0.0351442398
C     3.3846890923     -2.9247590211     0.8973982777
C     2.0367086463     -0.2937698717     -3.8998338001
C     0.8246320458     0.4123386019     -4.0967374918
C     -0.3224690337     -0.3929558231     -4.2675454465
C     -1.6259651155     0.0850490525     -3.9258308015
C     -0.6483718589     2.2452232941     -3.2755658672
C     -1.8164537642     1.3661390866     -3.3994619381
C     1.8645899065     2.404221999     -3.0176288567
C     0.6810828392     1.7671517488     -3.5986815298
C     1.6633638842     3.5174415106     -2.1733138826
C     0.3701691485     3.9661011524     -1.8359299246
C     -0.7841347082     3.3924371762     -2.4090709072
C     -1.9916594207     3.6264046704     -1.7131070411
C     3.169621042     0.3147745471     -3.2610098699
C     3.9794724359     1.9778131258     -1.7279991582
C     3.1120094298     1.651071731     -2.8268959262
C     4.5844926111     -1.3548756629     -0.3090115022
C     4.5803019139     -0.3814259641     -1.3433317113
C     3.8776849959     -0.6969633665     -2.5326628734
C     4.6592540914     0.9893669761     -0.9808360249
C     -3.1275139744     2.7682920378     -1.8651703318
C     -3.0238560096     1.5667180804     -2.6025352017
C     -3.8207440746     0.4142768648     -2.1591101291
C     -3.9038012707     2.8626861647     -0.6589640642
C     -4.6018410271     1.7616372641     -0.2150808279
C     -4.5846976944     0.5469609342     -0.9766755758
C     -3.1703419369     3.6898260598     0.2844325162
C     -4.5777857701     1.4069136106     1.1951499959
C     -3.8038185967     2.1330119483     2.0787071726
C     -3.0849450682     3.306378722     1.6217191652
C     0.3723275857     4.409905147     -0.4479950772
C     -0.7867456886     4.3480754602     0.3404076102
C     -2.0020657773     4.1704811752     -0.3707367518
C     1.6479673699     4.1690532777     0.0972224377
C     1.8296549222     3.642121465     1.4030523108
C     0.6333266733     3.4000546215     2.1997823496
C     -0.6515392019     3.8572113447     1.7066763182
C     -1.8242797082     3.3488111561     2.3115951521
C     1.877551372     1.6905627746     3.4529385134
C     0.6583067833     2.3440978689     3.200736959
C     3.9597335679     2.6194451888     0.556469211
C     3.6131980907     3.0178354025     -0.7890760182
C     2.5017459847     3.759411465     -1.0113989254
C     3.0741124786     1.9609151439     2.6954714006
C     3.0555779106     2.8862386772     1.6397266075
C     4.615313279     -0.9717529928     1.0873691477
C     3.8443630962     0.7550224522     2.6445872623
C     4.5793366898     0.4047706263     1.4761067359
C     4.6372262346     1.3841514707     0.4426463991
C     2.0255999732     -2.3903871491     3.2915102316
C     3.138190251     -0.2457254302     3.4008223753
C     3.1645528683     -1.6016764299     2.9953758836
C     3.9110298083     -1.9560799673     1.8323823051
C     -1.7728286479     2.2148674583     3.1974914348
C     -0.5592092621     1.6364840778     3.5815284241
C     -0.5544953631     0.221926569     3.9227621321
C     1.9242904491     0.3419230132     3.9062237603
C     0.738225788     -0.4232095394     4.0976096201
C     0.8580521948     -1.8170592802     3.9144362806


