96

 C     3.0531628053     -1.6324247218     -2.7841974906
C     3.0359207255     -0.2973584284     -3.1975501319
C     2.6088766276     -3.7997173147     -1.0140381101
C     3.7019436243     -3.0171605101     -0.8180009597
C     4.0010513723     -1.9619708278     -1.7520585408
C     3.0978666575     -1.9162278637     2.6383426958
C     4.0580123069     -2.5981288835     0.5224994256
C     3.1681196764     -2.8812487992     1.620901494
C     2.0041735791     -3.7341070436     1.405446037
C     0.7997181858     -3.5530578487     2.2277776579
C     1.8417805612     -4.2910329754     0.1142298558
C     -0.4097301247     -4.102008709     1.768683023
C     4.6908351305     -0.9620049467     -1.0308446204
C     4.610648909     0.403812504     -1.4126555695
C     3.8247529998     0.7163921797     -2.557678766
C     4.7040338654     1.389982383     -0.3912191019
C     4.7114069608     -1.3544871695     0.3927670562
C     3.8287770395     -0.685600587     2.5593229722
C     4.6128674661     -0.3688335883     1.4142146198
C     4.6857176548     0.9973961765     1.0324007824
C     3.6858452091     3.0472439513     0.8196594437
C     4.043999435     2.6301182142     -0.5208790057
C     3.1524826921     2.9084819964     -1.6191835803
C     3.0872731412     1.9431028395     -2.6366168831
C     2.5886334454     3.8239479641     1.0158143801
C     3.0346127335     0.3239279898     3.1992774528
C     3.0446798578     1.6590661718     2.7859292064
C     3.9906856436     1.9936626455     1.753685101
C     1.8187970434     4.3111616421     -0.1123706673
C     1.9840211843     3.7551115747     -1.4036037588
C     0.7804597496     3.5676311214     -2.2258055679
C     0.6743387778     2.4382735473     -3.1367101499
C     1.8517158363     1.6853031759     -3.35845285
C     -0.5932932292     1.8093248775     -3.430643387
C     -0.604142845     0.3966715145     -3.7806152667
C     -1.821168819     -0.3128262945     -3.6785373495
C     0.5341086556     4.6314330345     0.407813096
C     -0.5612972615     4.6272044512     -0.4202779811
C     -0.4318575484     4.1101135313     -1.7665849162
C     -1.7007736181     3.5729541715     -2.1436792829
C     -1.8250309916     2.418863589     -2.9356061294
C     1.8096034989     2.4377889315     2.9300527719
C     1.679186561     3.5887078267     2.1345065615
C     0.4074216571     4.1178944323     1.7557412404
C     0.6012767208     -0.398201583     -3.7794261648
C     1.818314822     0.3116109394     -3.6796874378
C     -1.8545391116     -1.6855048521     -3.3529949938
C     -0.6771409956     -2.4377746353     -3.1289997242
C     0.5904621694     -1.8097489569     -3.4250254406
C     1.8222484652     -2.4177327537     -2.9281914246
C     1.6980680221     -3.5693307263     -2.1326326418
C     -1.9866495863     -3.7491636976     -1.3916356906
C     -0.7831713281     -3.5642680149     -2.2145416013
C     0.4291885542     -4.1053054957     -1.7537334577
C     -1.8212944622     -4.3011503208     -0.0986761016
C     -0.5365548536     -4.619786708     0.4223891341
C     0.5587643791     -4.6181609999     -0.4058210161
C     -3.0900241478     -1.9410382397     -2.6302284096
C     -4.0465345475     -2.6214062852     -0.5122451768
C     -3.1551321956     -2.9032174494     -1.609759494
C     -4.6934279833     0.9690939342     -1.0334280413
C     -4.6132767974     -0.3979168674     -1.4109526163
C     -3.8274973952     -0.7140883078     -2.5550684964
C     -4.7065591965     -1.3808696547     -0.386412617
C     -3.0387284398     0.2976523821     -3.1981922128
C     -3.0559297475     1.6340113695     -2.7890347637
C     -4.0037190079     1.96679009     -1.757842177
C     -3.9929904715     -1.9778071528     1.7603055544
C     -3.6882476231     -3.0343165445     0.8295643516
C     -2.5910108308     -3.8103951204     1.0280505385
C     -3.0367739064     -0.3035297588     3.2005552996
C     -3.0468825128     -1.6399599829     2.7913960447
C     -4.7138505183     1.366045794     0.3889498149
C     -3.8310066139     0.7039763395     2.5575110133
C     -4.6152091435     0.3836060105     1.4134793105
C     -4.6880967522     -0.9838121607     1.035958479
C     -2.6114720177     3.806848211     -1.0257271604
C     -3.1000941019     1.9348487255     2.6325958952
C     -3.1704491664     2.8966637058     1.6121342255
C     -4.0604518946     2.6100927312     0.5147137184
C     -3.704520998     3.0249150209     -0.8271287858
C     1.8203252711     -0.2915351636     3.6815467996
C     0.5995253142     0.4117653114     3.7814108106
C     0.581134118     1.8232369621     3.4270107871
C     -1.8631792927     1.6859268058     3.3552278957
C     -0.6898395264     2.4444788898     3.1311156341
C     -0.8019840089     3.5703852491     2.2166721467
C     -2.0065267314     3.7488462226     1.3938926087
C     -1.8442609656     4.3017081402     0.1009183861
C     -1.6814571374     -3.5716346565     2.1459066277
C     -1.8117907407     -2.4182233097     2.9378452279
C     -0.5832744238     -1.8021097236     3.4327573683
C     0.687668651     -2.4242805923     3.1386938003
C     1.8610296833     -1.6650325717     3.360314645
C     -1.8224434603     0.3134484364     3.6807706354
C     -0.6016303681     -0.3895349102     3.782724086


