96

 C     2.7131906186     3.6745251552     -0.513744128
C     3.5129070183     3.3882578541     0.6171770075
C     4.5206926645     2.3842629796     0.5964986445
C     2.8760845212     2.8176198664     -1.691762748
C     3.9376138806     1.9140265583     -1.7188644679
C     4.8168991988     1.7264410368     -0.5922975093
C     0.6318953963     3.3625752916     -2.4387348158
C     1.7240776442     2.503760573     -2.536134251
C     0.1536393869     0.7094874483     -3.3437701247
C     1.5045248896     1.1712154586     -3.0821486512
C     2.6007802483     0.2225867383     -2.9994836571
C     3.8232018836     0.6515221279     -2.4229101501
C     0.9571444984     -1.6590190017     -3.2447707646
C     2.3344814889     -1.1994663925     -3.092365375
C     0.6636974936     -2.9943076028     -2.8593612904
C     -0.6524016956     2.9770722903     -2.8814227843
C     -2.3218318943     1.1808098179     -3.1131598639
C     -0.943623936     1.6394456505     -3.2603671553
C     -3.8144552412     -0.6660731156     -2.4410748429
C     -2.5886921123     -0.2406513314     -3.0131463139
C     -1.4919934107     -1.1897486228     -3.0836471087
C     -0.1396038383     -0.7296063667     -3.3402246083
C     -1.7147448559     -2.518941001     -2.5307861097
C     -0.6231633057     -3.3771210593     -2.4217971918
C     -3.2862901029     2.0783221082     -2.5718399118
C     4.4203253948     -1.6212247554     -1.7962821023
C     5.245567062     0.3500944357     -0.5802984724
C     4.7175944785     -0.2725042538     -1.7809724791
C     2.8702738341     -3.3158780776     -1.9013572604
C     3.2957613603     -2.0936350819     -2.5399773493
C     1.6066088749     -3.771370621     -2.0942777115
C     4.5149937745     -2.4010880152     -0.5637407494
C     4.8067700058     -1.7443868047     0.6267674963
C     5.2407137713     -0.36967501     0.6172781359
C     4.7081222938     0.254935741     1.8148645709
C     4.4158876022     1.604773447     1.8284595313
C     3.5035426123     -3.4012537489     -0.5902975018
C     3.9202301377     -1.9286212561     1.7481947954
C     2.8554580947     -2.8281781899     1.7149042772
C     2.6961769726     -3.6844735608     0.5359446682
C     1.4169700789     -4.3370704576     0.3011964254
C     0.4595510462     -4.2995386144     1.3279207557
C     0.9045646256     -4.4423745658     -1.0293558457
C     1.6086623655     3.7655863715     2.1100948904
C     2.8716910933     3.3052985074     1.9245288249
C     3.2888120484     2.0814573532     2.5655968315
C     3.8065086367     -0.6656832086     2.4515730543
C     0.6049009817     -3.3646035869     2.4487882983
C     1.6997493605     -2.5099415005     2.5525531444
C     1.4820750876     -1.1765640559     3.0972914443
C     2.5823862092     -0.2321054675     3.0210226354
C     2.3209481833     1.1909482598     3.1123716281
C     0.1314518106     -0.709711236     3.3510479698
C     0.9445017224     1.6557271449     3.2567620452
C     0.6583724383     2.9921142413     2.8696650051
C     0.4835691371     4.2980655976     -1.3187212757
C     1.4351244769     4.3319744087     -0.2864374242
C     0.9153828219     4.43924132     1.0411115274
C     -0.4725759448     4.3078778923     1.2989268957
C     -1.4240096063     4.3391132466     0.2664423618
C     -0.9038786471     4.4362926296     -1.0617286826
C     -2.8645027229     3.3044539983     -1.9382371911
C     -1.5997314288     3.7587787943     -2.1265907437
C     -3.9356818561     1.9395100884     1.7135576961
C     -2.8707171199     2.8388667942     1.6809617302
C     -2.7045700544     3.6879421777     0.4977403333
C     -3.5053822039     3.397830272     -0.6314272688
C     -0.6804813527     -2.9742237601     2.8839951784
C     -0.9688299596     -1.6354988728     3.2612527135
C     -0.156304758     0.7304844333     3.3458177584
C     -2.3444081777     -1.1716371063     3.1060335234
C     -2.6052850999     0.2508269139     3.0044813716
C     -1.5054185904     1.1957544022     3.0813788703
C     -1.7199028417     2.5257775927     2.5272464785
C     -0.6244575006     3.3798070356     2.424623259
C     -3.8260709305     0.6808949473     2.4252893985
C     -4.4318591921     -1.593336281     1.8125223283
C     -4.7239837219     -0.2436108755     1.7889841981
C     -5.2495945469     0.3736589241     0.5845292099
C     -4.8156848403     1.7484100408     0.5881431367
C     -4.5169876306     2.3978327971     -0.604639027
C     -1.6263591766     -3.7523371029     2.1236539581
C     -2.8882807927     -3.2932166296     1.9279455291
C     -3.3090971356     -2.0654855867     2.5590952509
C     -0.4813638869     -4.3057468757     -1.2952446411
C     -1.4389075785     -4.3333623972     -0.2683214695
C     -0.9268913111     -4.4324999564     1.0628543201
C     -4.8188003502     -1.7298016502     -0.6097369875
C     -3.9329852556     -1.9242542747     -1.7300086211
C     -2.8716501565     -2.8276468869     -1.6912215356
C     -4.5295182438     -2.3803385057     0.5847574298
C     -3.5218879388     -3.3841719185     0.6174248672
C     -2.7156206899     -3.6773350714     -0.5070609874
C     -4.4151650994     1.6104489786     -1.8318248244
C     -5.2475005401     -0.3534123316     -0.6086343108
C     -4.7125419494     0.2618429033     -1.8100031179


