96

 C     -4.0899110825     -2.0195885731     -1.7615014767
C     -2.875724893     -2.5286908632     -2.2922645494
C     -2.2232240326     -1.7039142673     -3.2414179596
C     -0.8306873036     -1.8261883349     -3.4911323348
C     -0.6336369026     -3.5304298085     -1.7466857243
C     -0.0279407481     -2.7426192734     -2.8163309501
C     -4.5398473239     -2.3998383957     -0.4384240943
C     -3.7550695974     -3.240877416     0.3291265905
C     -2.5174305737     -3.7800150071     -0.1992750625
C     -2.0477556557     -3.4344699159     -1.5025563151
C     0.2394684244     -3.9627322407     -0.6780243746
C     1.6260485315     -3.9058769725     -0.8719292484
C     2.2171578311     -3.2875649468     -2.0441920158
C     1.4056179427     -2.514399045     -2.8814692412
C     1.9309795149     -1.2326334525     -3.3569196544
C     3.554166011     -2.9102425727     -1.7146631267
C     4.0941697744     -1.750971043     -2.2628825845
C     3.2501741254     -0.8928541764     -3.0534937306
C     3.7686909713     -3.2189472611     -0.3143690601
C     4.9739771727     -0.9190194367     -1.4807737335
C     5.2110145619     -1.2328401939     -0.1408665211
C     4.5489080281     -2.3773636354     0.4572250009
C     -1.6087239393     -3.9188572003     0.8834081275
C     -0.2218561642     -3.9672656845     0.6892468127
C     2.0624795662     -3.4305838864     1.5163420031
C     2.5340031748     -3.767312334     0.2114227046
C     1.0133342437     -0.1418848762     -3.6325975202
C     -0.318934603     -0.505453265     -3.8405935936
C     -1.3789219017     0.4120138005     -3.7274365429
C     3.6146732168     0.4869382528     -2.7906598736
C     2.6554768214     1.527601701     -2.7856572946
C     1.3119318065     1.2300955069     -3.2777466777
C     0.2186003373     2.1523844882     -3.0488830952
C     -1.1604895398     1.7292446923     -3.2735354127
C     0.4653931671     3.3261433063     -2.2177590423
C     -0.6554283566     3.9734957148     -1.6642288835
C     4.7183707106     0.4566308884     -1.8617987579
C     2.8775268463     2.6593334395     -1.8950912595
C     1.7593643569     3.5251638499     -1.5680095634
C     4.8480575509     1.4704690447     -0.9272259929
C     3.973787746     2.6021345496     -0.9911404364
C     -2.0048864269     3.516053409     -1.8650300121
C     -2.2993045742     2.3821725123     -2.634214706
C     -3.5433893072     1.6439268662     -2.3330280351
C     -2.7380096884     3.7873792087     -0.6555697322
C     -3.8328131814     3.0450536593     -0.3216736411
C     -4.3322413606     2.0553560316     -1.2322401928
C     0.5728942737     4.5071500817     0.3708228893
C     -0.6012143033     4.5056250853     -0.3189355419
C     -1.8096221452     4.1789754473     0.3634156099
C     1.7830417479     4.190321106     -0.3130751252
C     -3.6626776396     0.2447912788     -2.7280617341
C     -2.5835086433     -0.3297093292     -3.4157577489
C     -5.0927659304     1.1152717103     -0.4353866682
C     -5.2162708875     -0.2059846009     -0.8239480444
C     -4.4891984378     -0.6592903833     -1.987347019
C     -4.8598452871     1.4396359125     0.9644630398
C     -5.2081474181     -1.2618024481     0.1651372158
C     -4.9727994498     -0.9531347919     1.5065347538
C     -4.7246508147     0.4220392319     1.8941597075
C     -3.9917251567     2.5757078794     1.0338187721
C     -2.8957770057     2.6345045216     1.9380479454
C     -1.7823266413     3.5079412886     1.6151429639
C     0.6300073223     3.9688736134     1.7135469235
C     -0.4872859638     3.3128137026     2.2639492884
C     1.1472390299     1.7196934437     3.3120692668
C     -0.2341231442     2.136433202     3.0894306026
C     -1.3224389153     1.2071440025     3.3138486362
C     -2.6675813087     1.4997283834     2.8231742503
C     -3.6211205734     0.4538674618     2.8231686481
C     1.372812438     0.4015009248     3.7596462903
C     0.3178177844     -0.5222270885     3.868382254
C     -1.0164026405     -0.1648849707     3.6621119355
C     4.317150855     2.0727706346     1.2724020993
C     3.8123523708     3.0641017817     0.3665866144
C     2.7135504301     3.7988759942     0.7040307013
C     3.5305580166     1.6518010305     2.3711968087
C     2.2824931317     2.3818392429     2.6759063524
C     1.9819252429     3.5177861295     1.9121685549
C     4.4888400199     -0.6445678517     2.0144820331
C     5.2134272724     -0.1817552418     0.8532778354
C     5.0827521639     1.1406598094     0.4710568103
C     2.5814013593     -0.3321799735     3.4444277515
C     3.6574361911     0.2514547091     2.7595148015
C     0.0389516891     -2.7559990186     2.8333892367
C     0.6489046943     -3.5353754785     1.7599856213
C     0.8367231573     -1.8384796982     3.5125918327
C     2.2285761058     -1.7074604146     3.2634898407
C     2.8855333687     -2.5241279121     2.3104062703
C     4.0969353331     -2.0059110589     1.782110231
C     -3.2491422584     -0.9251765413     3.0793790325
C     -4.0884829952     -1.7840543405     2.2846499021
C     -3.5422042313     -2.9377407926     1.7308824608
C     -1.9281222591     -1.2592579845     3.3811900779
C     -1.3958208904     -2.535863021     2.8996021566
C     -2.2031643348     -3.3093915127     2.0586146472


