96

 C     -3.7871620092     -3.090273705     -0.7223186462
C     -4.5370544722     -2.568416499     0.3166302038
C     -3.9407638103     -2.4519281878     1.6297881571
C     -2.4523388878     -0.9561046376     3.479110971
C     -0.3977185022     -2.1329469738     2.9114417448
C     -1.8370337195     -2.0671527366     2.8723016483
C     -2.5880485188     -2.8139424543     1.8666260956
C     1.6534482336     -3.1171421713     2.0589348274
C     0.2679362123     -3.0601949558     2.0239331179
C     -0.4018016639     -3.5132616375     0.8252556254
C     -1.8411554521     -3.4489911781     0.7839891527
C     -2.4601234407     -3.5715867079     -0.4742174487
C     -5.3993813118     -0.7958518568     -1.1690694165
C     -4.5386254142     -1.299156455     -2.2273074574
C     -5.3985307867     -1.4205851412     0.0831433473
C     -3.788002132     -2.4427438558     -2.0202647931
C     -2.4614818524     -2.5333546783     -2.5554058485
C     0.2641526981     -0.2283567384     -3.6517224714
C     1.649520376     -0.2339454498     -3.7201621761
C     -0.4045161771     -1.4588952918     -3.2922829677
C     -1.8437397124     -1.4539262091     -3.214553826
C     -2.5913762666     -0.2074303508     -3.3574473929
C     -3.9436469024     -0.1796502571     -2.9245304265
C     -0.2932450468     -3.282390904     -1.6309326129
C     -1.6788738059     -3.3403367375     -1.6589257137
C     3.9166362378     -2.6392112056     -1.3129152282
C     2.563209963     -3.0246752171     -1.504320858
C     1.8136481433     -2.4041107157     -2.5934576832
C     0.3741798244     -2.4712358646     -2.6244987519
C     2.4311789716     -1.3761193831     -3.3305084108
C     0.375677811     -3.587853458     -0.3860047532
C     2.4340707275     -3.4921894456     0.9111952022
C     1.8151589828     -3.5218670204     -0.3526564773
C     -3.7832844142     2.1761501593     -2.3016225926
C     -5.3979170505     0.6480386027     -1.2570754467
C     -4.5362905954     1.0174476462     -2.3684694257
C     -1.8411794782     1.0456393706     -3.3668485125
C     -0.4019522352     1.0380879861     -3.4442629867
C     -2.4566325588     2.1983357931     -2.8436048729
C     -3.7810057011     2.9765695981     -1.0919313303
C     -4.5317152491     2.5860594747     0.0026037472
C     -5.3956128816     1.4201735212     -0.0899251954
C     -5.3946417557     0.7744081977     1.2044369821
C     -5.3961013456     -0.6224386432     1.2895523534
C     -2.4528795075     3.4815732002     -0.9038642116
C     0.2744286128     3.2717629906     1.6382515883
C     1.6600577136     3.3297178702     1.6662333352
C     -0.3944923404     3.577224019     0.3933277323
C     -1.8339724461     3.5112422648     0.3599878298
C     -2.5820235497     3.0140478147     1.5116516906
C     -3.9354504042     2.6285862791     1.3202451652
C     -0.2867483445     3.049567141     -2.0166137086
C     -1.6722560315     3.1065214873     -2.0516074176
C     3.9219397098     2.4413016714     -1.6224963888
C     2.5692270747     2.8033154135     -1.8593266328
C     1.8223346521     3.4383701761     -0.7766855155
C     0.3829858101     3.5026340731     -0.8179369733
C     2.4413036352     3.5609712019     0.4815199766
C     0.3789032142     2.1223135014     -2.9041251546
C     2.4335189747     0.9454621307     -3.4718033983
C     1.8182136934     2.0565153767     -2.8649936286
C     -4.5302299118     1.5499569027     2.0793117904
C     -4.5331748814     -1.2878136139     2.2522094124
C     -3.779556725     -0.5371326318     3.136827811
C     -3.7780408635     0.9106943593     3.0486144614
C     -1.832464067     2.3934726107     2.6007823537
C     -0.3929967822     2.4606050867     2.6318186073
C     -2.4499951473     1.3654756731     3.3378251773
C     2.4426654775     2.5227386337     2.5627099343
C     1.8249229288     1.4433069488     3.2218598954
C     0.3856997465     1.4482643612     3.2995984188
C     -0.2829694279     0.2177218852     3.6590390406
C     -1.6683376492     0.2233027694     3.7274755852
C     2.5725603842     0.1968178591     3.3647561582
C     1.8223662557     -1.0562585646     3.3741701563
C     0.3831364402     -1.048720663     3.4515818855
C     2.4378244672     -2.2089507656     2.8509302003
C     3.7691861536     2.4321395438     2.0275640196
C     4.5198088623     1.2885567762     2.2346078363
C     3.9248321926     0.1690498081     2.9318376644
C     5.3797110339     1.4099739633     -0.0758511147
C     4.5182302758     2.5577994481     -0.3093401984
C     3.7683419878     3.0796603194     0.7296120401
C     5.3805646267     0.7852518178     1.1763679235
C     3.7607380417     0.5264926544     -3.129525492
C     5.3772812954     0.6118163365     -1.2822527166
C     4.514351877     1.2771820406     -2.2449142188
C     5.3791043299     -0.6586366632     1.2643869324
C     5.3768001413     -1.4307825457     0.0972430146
C     5.3758246923     -0.78502982     -1.1971240127
C     4.5114124117     -1.560588114     -2.0719894935
C     3.7592231969     -0.9213339524     -3.0412993843
C     4.5174797122     -1.0280448507     2.3757817863
C     3.7644770055     -2.1867527985     2.3089446751
C     3.7622004125     -2.9871812719     1.099260969
C     4.5129060085     -2.5966737803     0.0047251398


