96

 C     0.660829069     -3.47486193     -2.5636987616
C     1.7574599878     -2.6011317252     -2.6127137787
C     2.8869715399     -2.8581662437     -1.7065716008
C     3.8620250231     -1.8127779859     -1.4703030097
C     4.5579866417     -1.8137234368     -0.2283180308
C     1.5222585716     -1.2777794617     -3.1621541957
C     2.5930462863     -0.3049790577     -3.0595657214
C     3.7622367581     -0.5613207169     -2.2165432626
C     2.2899137672     1.0295763869     -3.3966099827
C     -0.6522468692     -3.0745344555     -2.9585807881
C     -2.3095681597     -1.2494440011     -3.1530257697
C     -0.944100494     -1.7499142208     -3.3346414452
C     0.166147954     -0.8408630505     -3.4553235877
C     -3.7494250178     0.6364170738     -2.4515048585
C     -2.5508473919     0.1855872737     -3.0442346161
C     -1.4446327366     1.1094164656     -3.1221944164
C     -0.1411636311     0.5808775651     -3.4975309412
C     0.9261279768     1.467050097     -3.5358955525
C     -3.2690992183     -2.1187281223     -2.5739552538
C     3.0440716006     2.1454178091     -2.8997700988
C     4.093900793     1.9101564364     -2.0296876306
C     4.4725887953     0.5629424611     -1.7236404123
C     4.9318292612     0.5762145501     -0.3512152404
C     4.9301955873     -0.5665656892     0.3860662568
C     2.1297422989     3.2440549477     -2.668215108
C     4.1949879835     2.7039353618     -0.8116923119
C     3.306708311     3.7291263417     -0.5749277028
C     2.2802737691     4.0579037544     -1.5559351008
C     0.8124961962     2.8161236404     -3.0457230384
C     -0.3504064528     3.2420062958     -2.3777444334
C     -1.5353344701     2.415110645     -2.5040896232
C     3.0299509588     -2.1367266632     2.9247388136
C     4.0841861248     -1.9009328608     2.0601447942
C     4.4637846576     -0.5535280329     1.7560748256
C     4.5557870083     1.8231824725     0.2612169969
C     2.8765475355     2.8667761659     1.730727493
C     3.8533478557     1.8218815407     1.4995499764
C     3.7502991718     0.5703736397     2.2452618701
C     0.6456500457     3.4823455691     2.5762293629
C     1.7424504665     2.6091687412     2.6309631466
C     1.5050532376     1.2856968353     3.1791678507
C     2.5768541752     0.313440295     3.0821716709
C     2.272644358     -1.0212685368     3.4176340529
C     2.7300229738     3.8737152686     0.734530549
C     3.3055209529     -3.7202991819     0.6012997563
C     2.2741479148     -4.0495986277     1.5769381571
C     4.1920352552     -2.6946603902     0.842695153
C     2.1173997747     -3.2358267165     2.6884175247
C     0.7979853126     -2.8085661658     3.0590507008
C     -2.7009676607     -2.7449579977     1.6881870131
C     -3.8127461923     -1.8850594396     1.738524267
C     -1.5471898862     -2.4087420956     2.5051742789
C     -0.3611983653     -3.2350384799     2.3850134519
C     -0.2054257658     -4.1628826421     1.2641890396
C     1.1143221078     -4.5151688598     0.8767048113
C     -0.6692664257     3.0813520247     2.9642550105
C     -0.9624096309     1.7565833888     3.3387884474
C     0.1476522206     0.8480930588     3.4652603647
C     -0.1591527428     -0.573802273     3.5058712833
C     0.9083725735     -1.4594334801     3.5498058825
C     -2.3266581498     1.2554206783     3.1500570438
C     -2.5666368643     -0.1797323034     3.0400106339
C     -1.4603777556     -1.1030043524     3.1237415444
C     -3.7618759855     -0.6311705656     2.4410342194
C     0.5049432632     -4.4182573856     -1.4749193225
C     2.7357548736     -3.8651800458     -0.7111499787
C     1.4761980952     -4.5334404151     -0.5265792909
C     -1.2551918198     -4.2377785769     0.2614488966
C     -2.5384032719     -3.605954799     0.5143113385
C     -0.8707184181     -4.4551953287     -1.0882225989
C     -1.5885786733     -3.8174500831     -2.1495008864
C     -2.8373582352     -3.33034544     -1.9241866863
C     -3.3969335827     -3.3712711319     -0.592416105
C     -4.3871197499     1.6297395714     1.7940264332
C     -4.6735067621     0.2810080131     1.7885544526
C     -5.1784427785     -0.3550554716     0.5939634879
C     -4.7169436028     -1.7223258945     0.6171638683
C     -4.4320416398     -2.3829540346     -0.5631816739
C     -1.6017393746     3.8237947655     2.1502999089
C     -2.8490790061     3.3360565202     1.9184756441
C     -3.2835944478     2.1242198458     2.5659856895
C     1.4711081693     4.5413390657     0.5433900328
C     -0.8786699294     4.4619061979     1.0927821845
C     0.4949739637     4.4256649694     1.4866493685
C     -4.7145532941     1.7270854844     -0.6326467856
C     -3.8045971709     1.8902772968     -1.7492705517
C     -2.6935307095     2.7507382291     -1.6931346336
C     -4.4361548843     2.387858115     0.5491680555
C     -3.4017143871     3.3766989925     0.5838028879
C     -2.5375348553     3.6118166346     -0.5184285597
C     -1.2559817356     4.2442949626     -0.2588773504
C     -0.2009572511     4.1699311072     -1.2561247004
C     1.1165716193     4.5228862889     -0.8617619015
C     -4.3768923666     -1.6248103307     -1.8077669483
C     -5.175475976     0.3595798379     -0.6118527648
C     -4.6639890486     -0.2762239821     -1.8037914799


