96

 C     -2.9021529414     -1.7795021609     -3.0450773167
C     -2.4551228862     -2.9121156419     -2.3465330438
C     -3.193642307     -3.2189941853     -1.1612772693
C     -2.5679237975     -3.9263954061     -0.0757544158
C     -1.2939010356     -4.3873386288     -0.212652708
C     -1.9807159694     -1.005283501     -3.8488456833
C     0.2618736256     -0.2849940248     -4.2458461587
C     -0.6071394761     -1.3485108052     -3.9266914243
C     -0.0857755163     -2.4923173322     -3.2005221973
C     -1.0457665439     -3.3149231424     -2.4572786532
C     -0.5501360674     -4.1469211034     -1.4369406028
C     -2.3292393465     -2.1526810696     3.1303103419
C     -2.0583491232     -3.2088968454     2.2493420496
C     -2.9962423706     -3.3714655868     1.1842480755
C     -0.3641372108     -4.3480321308     0.9002183585
C     -0.6748488653     -3.6516354918     2.09067765
C     1.7663449913     -3.12502742     2.309560919
C     0.4134380611     -2.9556019506     2.7747372121
C     0.1009657129     -1.7784988496     3.5771981367
C     -1.2472524956     -1.4437186841     3.7882623804
C     2.7529058771     -2.1978907548     2.7521854239
C     0.9395194487     -4.322869088     0.3420389915
C     3.1472315634     -3.4246824457     0.2496061824
C     2.0305040564     -3.8042520269     1.0489290817
C     1.6464478097     -0.3151496105     -3.9015701712
C     2.2041479501     -1.3864745225     -3.2014251841
C     1.3231786039     -2.5171434753     -2.8646676557
C     1.770005248     -3.4080445392     -1.817343071
C     0.8235857869     -4.1605635155     -1.0949437269
C     2.9966860717     -3.1730101284     -1.1497475967
C     -3.9687507356     -2.3789656659     0.8828751169
C     -3.3965528446     -1.2327499091     2.9108615112
C     -4.1608118316     -1.2472074948     1.7058588359
C     -3.0087820516     0.0091587428     3.5316894917
C     -3.4666520328     1.1902204049     3.0093892729
C     -0.3610191826     3.1853331483     2.9679075737
C     -2.601178198     2.347369792     3.0134003649
C     -1.2688148299     2.2560531921     3.505190548
C     -1.6530787014     -0.1080609705     4.0291441041
C     2.3969848203     -0.9895722143     3.407049411
C     1.0655508228     -0.707313924     3.7572718953
C     0.6631311628     0.6828823859     3.8515433055
C     -0.7418959843     0.9818187962     3.9705707694
C     1.5881876635     1.7157814311     3.3686685135
C     1.0462884662     2.9400666018     2.9542691537
C     -4.2888099439     1.2018627623     1.8132020117
C     -4.5698894357     0.0196167822     1.0898825278
C     -4.6852748033     0.1146872174     -0.3695125601
C     -3.9807186683     2.4363980669     1.1526030439
C     -4.0418343206     2.5163349731     -0.215950201
C     -4.472444685     1.3806900812     -0.972242627
C     -2.9111896587     3.1141444802     1.8523263673
C     -1.9071605736     3.8239775743     1.1352009735
C     -0.6802036484     3.9545437595     1.802617655
C     -4.4183821207     -1.0652703859     -1.1987585268
C     -4.0966365489     -2.2871383238     -0.5716191224
C     -3.8568379476     1.5126881179     -2.2745037579
C     -3.6061356131     0.4056993486     -3.0387237781
C     -3.9012664211     -0.9037286887     -2.5168196805
C     -0.1697749307     1.0800086829     -4.179476682
C     -2.410837106     0.3521232743     -3.8370143012
C     -1.47773698     1.4288239661     -3.8302669831
C     -2.9111562837     2.6216581316     -2.241072365
C     -0.5578144688     3.3014085445     -2.386958253
C     -1.6882025923     2.5795904037     -2.9405262933
C     1.927975117     3.3871811271     -2.210706927
C     0.7727578908     3.0018688862     -2.9220121617
C     0.9462039486     1.8905910167     -3.7888254878
C     -1.9122256973     3.8308839753     -0.3360650785
C     -3.021390356     3.2381088454     -0.9685041621
C     0.5312937874     4.2176921558     1.0861059161
C     0.5522341933     4.2327479569     -0.3332772419
C     -0.6690548308     3.9245733177     -1.0806348185
C     1.8174400799     4.0021230966     -0.9144015121
C     3.7957236042     2.8208540897     -0.9840042919
C     3.139630297     2.6230470757     -2.2468202683
C     3.1898556862     1.3551500649     -2.8866177095
C     2.094155303     1.0489710408     -3.7096022413
C     4.563166268     1.8194055835     -0.4457901673
C     1.6146690352     3.6777963967     1.8437385892
C     2.8249900469     3.2995309417     1.2440695076
C     2.9553373026     3.6188142392     -0.1348931869
C     4.3332653636     -0.5569316437     2.1972136771
C     3.3401165758     0.0472451182     3.0346531555
C     2.919826852     1.3745017394     2.8656306865
C     4.8876254091     0.1783321992     1.1603323847
C     4.5229419196     1.5485702729     0.9857049606
C     3.5571468492     2.1743408914     1.8123534307
C     4.6434540449     -1.7378732067     -0.3587632853
C     4.1446521247     -2.5275903154     0.7528855593
C     3.9609934961     -1.9437127667     1.9951054424
C     5.028664809     -0.4275916187     -0.1596046215
C     3.9381678196     0.2554961485     -2.2914691168
C     3.4471920208     -1.1198975174     -2.456693122
C     3.8642094243     -2.0806311466     -1.5174539547
C     4.7262829683     0.5600730179     -1.1488791943


