96

 C     0.4231503418     4.2196749758     -1.6600027003
C     -1.910763521     4.0831226753     -1.0264477946
C     -0.5746149834     4.4908182337     -0.7587334383
C     0.9530881354     3.9451771313     1.1256017487
C     -0.3024043784     4.3717862384     0.6586884892
C     1.7541569638     3.9512297608     -1.2080628558
C     2.0517185215     3.7918451991     0.1634305456
C     0.1380679158     3.3836921036     -2.793896762
C     -1.1162347925     2.7785510989     -2.9703862865
C     -2.2162215454     3.2014794563     -2.094328847
C     -3.392341849     2.3513945114     -1.9363362275
C     -4.139312836     2.3821206733     -0.707925863
C     -3.4415230126     1.1538894761     -2.6680290982
C     1.3615931566     2.7206628065     -3.1440293871
C     2.5687018112     0.7054649949     -3.5669740138
C     1.3603489443     1.4237131842     -3.7054498591
C     0.0946035849     0.7188128503     -3.8698125679
C     -1.1293604187     1.4445013733     -3.5825145608
C     -2.3132261587     0.7031997035     -3.4593952634
C     3.4768780227     2.2992658188     -1.8934372623
C     2.3733124017     3.1184954047     -2.2028621854
C     3.6382270123     1.161221172     -2.7180767152
C     3.9820918773     2.2906438812     -0.5222095664
C     3.313059732     2.5545202608     1.8427670914
C     3.2272272951     3.0087458328     0.5114159104
C     4.77181464     1.1801442471     -0.1328528629
C     -4.1327044904     -0.0033173283     -2.1822225421
C     -4.7599851905     -0.0004804516     -0.9003314504
C     -4.7513762612     1.2227150283     -0.1760006733
C     -4.7518090477     -1.2205871043     -0.1708043129
C     -3.4419320609     -1.1628240597     -2.6631028707
C     -3.3931734954     -2.3572229273     -1.926322774
C     -4.1401540073     -2.3824597393     -0.697794276
C     -2.5465903205     -3.9310898373     0.2842943127
C     -3.6413339286     -3.1357001682     0.4318634356
C     0.1368720106     -3.3944037376     -2.7794803752
C     -1.1172176214     -2.7895757357     -2.9585434184
C     -2.2173528383     -3.2083865319     -2.0806967851
C     -1.912205833     -4.0855893912     -1.0090768102
C     2.5684498179     -0.720346135     -3.5639412138
C     1.3598437559     -1.4387499888     -3.6993611747
C     0.0943468284     -0.7341088051     -3.8667219268
C     -1.1298719766     -1.458136943     -3.5763402127
C     -2.3134765636     -0.71590179     -3.4563767594
C     1.3606300025     -2.7333003216     -3.1324295501
C     -4.5578920779     -1.2165368751     1.2867150823
C     -4.3915697287     0.0056103112     1.9942524817
C     -4.5574595791     1.2247960807     1.2815235895
C     -3.4773619349     0.0077607237     3.0812628427
C     -2.6794271725     -1.148532451     3.3772521824
C     -2.7739377257     -2.3294422335     2.6248363899
C     -3.8195757021     -2.3711675657     1.6409618752
C     -2.6790186297     1.1650205008     3.3723338731
C     -2.7731112237     2.3427523435     2.6149002355
C     -3.8187358118     2.3806627808     1.6308567592
C     -3.6402259325     3.1399836468     0.4185182221
C     -2.5452007042     3.9343522499     0.2675678412
C     -1.41323341     0.7221001858     3.8910579804
C     -0.2253504695     1.4625595798     3.719478923
C     -0.2791688083     2.6983355599     2.9566859692
C     -1.5555312721     3.1341457679     2.4141324077
C     -1.5193060241     4.0027749557     1.3039069204
C     2.1622485437     2.5749962693     2.728612687
C     0.9492346686     3.1899228963     2.3639267559
C     -1.5207193843     -3.9954663042     1.3209153356
C     -1.5566378049     -3.1221132725     2.4274366493
C     -0.28012063     -2.6844488159     2.9681324304
C     -0.2258648206     -1.4454585962     3.7256619531
C     -1.4134849667     -0.703856054     3.8940879284
C     1.0087808221     -0.7211313359     3.9029268763
C     1.0090392179     0.7385557224     3.8998233689
C     2.2018207604     1.4071595765     3.5439535834
C     0.9481078294     -3.1789873736     2.3774720357
C     2.1613393813     -2.5629429214     2.7395378236
C     2.2013253694     -1.3916636493     3.5499048048
C     1.7527602535     -3.955760666     -1.1912469394
C     0.4216592422     -4.225658351     -1.6420425667
C     -0.5762021736     -4.4926137082     -0.7396286385
C     2.0503782244     -3.7906499527     0.1795566109
C     0.9516942172     -3.9395025078     1.1423695179
C     -0.3039485113     -4.3676501198     0.6772739896
C     3.6378156487     -1.1728649664     -2.7131124395
C     3.9812807575     -2.2930593042     -0.5124611977
C     3.4760639016     -2.3073346735     -1.8836394596
C     2.3722093395     -3.1274828965     -2.1895776702
C     3.3121572334     -2.5466398788     1.853615734
C     3.2261632107     -3.0064918308     0.5242077144
C     4.1162515845     -1.4128660138     2.2104373302
C     4.8150311018     -0.7265444618     1.2312100012
C     4.7713970352     -1.1811931151     -0.1278302919
C     4.8664541396     -0.0023276258     -0.9704033533
C     4.3181933774     -0.0049156279     -2.2329727749
C     3.4165485182     -0.6832475706     3.2493635709
C     3.4167925721     0.6970424436     3.2464274705
C     4.1167524352     1.4219887378     2.2044076109
C     4.815289472     0.7312632823     1.2281096833


