96

 C     -3.9270998528     0.4965223424     -2.3669590816
C     -3.9841031581     -0.8653558129     -2.0097538322
C     -4.5650659722     -1.1352603172     -0.7389287441
C     -4.2878155028     -2.3615943811     -0.0424605177
C     -3.4448496292     -3.2899228194     -0.6142347151
C     -2.9305190248     0.9765508359     -3.2837511061
C     -0.7632753879     0.745648539     -4.2531605357
C     -1.9421023315     0.1059381245     -3.8143992499
C     -1.9039720632     -1.2930359825     -3.4070780555
C     -2.9833532874     -1.7877348112     -2.5631836764
C     -2.7816434826     -2.997232308     -1.8719869074
C     -3.2717430576     -2.7367951004     2.1583507817
C     -2.4387574294     -3.7715537443     1.5801635317
C     -4.1913366746     -2.0641474316     1.375579153
C     -2.5168951112     -4.0331686208     0.2144055561
C     -1.3203342367     -4.2412335663     -0.5361398476
C     -1.1568623758     -3.7070959981     2.2084532021
C     0.0310361171     -3.9952104616     1.5074174069
C     -0.0536697912     -4.2737544526     0.0745444433
C     2.0123779104     -2.8905649013     -2.7468989465
C     0.9112350951     -3.5142634217     -2.1281304035
C     1.0905302521     -4.0486728144     -0.7808057071
C     2.3318973873     -3.8586581756     -0.1379631281
C     0.4614504857     0.0354596573     -4.3808058307
C     0.5427842715     -1.3209440426     -3.9951410414
C     -0.6360996935     -1.9937371056     -3.4550392041
C     -0.4174467829     -3.1402813639     -2.5877698792
C     -1.4986367185     -3.6213995898     -1.8360729218
C     1.8362741941     -1.7910876432     -3.6371973065
C     -3.6158871625     0.0967073141     2.471876691
C     -2.6146546967     -0.6111028449     3.277831986
C     -4.3686375243     -0.6507869826     1.5379484805
C     -2.4846378136     -2.0066330782     3.1108045612
C     -1.1975234772     -2.6362738213     3.184515258
C     -0.0401807817     -1.9475635436     3.5826190458
C     -0.1702171141     -0.5615489693     3.9879278141
C     -1.4663173683     0.0916182766     3.8236477601
C     -1.5008841444     1.4963685606     3.752515776
C     2.2771119543     -0.3737593758     3.8317038336
C     1.0288015804     0.2441383335     4.0998092313
C     2.4121673422     -3.5870209787     1.2722447729
C     1.2630152111     -3.4992168655     2.0765637327
C     1.2293017662     -2.5022018925     3.1492470199
C     2.3738056475     -1.7223429979     3.372303632
C     -2.4970308038     2.1980476718     2.9771205427
C     -3.4771873264     1.5252620771     2.2261641456
C     -3.9141942653     2.119501256     0.9619557218
C     -1.8657039929     3.3934553144     2.49374319
C     -2.1958801327     3.8959969556     1.2603121842
C     -3.2664701529     3.3067557741     0.5204298832
C     -0.4960961323     3.4186690221     2.9211064123
C     0.5336138213     3.8700784575     2.0582561663
C     1.8241244893     3.3954889343     2.3613522541
C     0.9612246438     1.6879627055     3.9359794159
C     -0.3018155212     2.283722199     3.7746376919
C     2.050939374     2.3897025999     3.3495446123
C     -4.472151948     1.2556940203     -0.066318742
C     -4.7113346989     -0.0976523299     0.2443421848
C     -2.9704618907     3.5330409447     -0.8705153016
C     -3.4537403096     2.6807080251     -1.8303413242
C     -4.2373018013     1.5407530268     -1.4394394749
C     -0.4461751728     2.0924738283     -3.8671298188
C     -2.6319399446     2.338624377     -2.9556709754
C     -1.3138509719     2.8544256581     -3.0772437317
C     0.2130966701     4.2264342928     0.6684772433
C     -1.1483956974     4.3250521473     0.3385564161
C     -1.619523388     4.0792687853     -0.9789372028
C     0.6830567142     3.6827266341     -1.7385527938
C     -0.7458655926     3.700159619     -2.0143852702
C     1.1621182461     3.9546825087     -0.4001432443
C     2.8274406245     3.2703215346     1.3378930522
C     2.5103078455     3.5197361096     -0.0198281312
C     3.3214673185     2.8448327465     -0.9588873881
C     2.853132699     2.5841738184     -2.2818297453
C     1.5579243805     2.9704649335     -2.6818788569
C     0.9731509152     2.1929252422     -3.725770483
C     3.3816959319     0.3610363776     3.2468708675
C     3.249797618     1.7006802548     2.9683814921
C     4.3371185885     1.3695532419     0.7600102483
C     3.7358238786     2.226032019     1.7218978325
C     4.2064435249     1.7798538974     -0.5818255711
C     4.1098928361     -2.3496390501     0.2138434931
C     3.5474342941     -2.7185235219     1.4808471046
C     3.5310805935     -1.8151046421     2.5125782072
C     4.5230567658     -1.0246754999     -0.0597694802
C     4.5097753273     -0.0583563944     1.0495157047
C     4.0838148279     -0.5052888049     2.3235988756
C     3.7970719351     -1.404141551     -2.4254112193
C     3.2550729903     -2.6836448435     -2.0538002738
C     3.4086621844     -3.1453693254     -0.770966338
C     4.2621847853     0.8446370083     -1.6736410863
C     4.3915418784     -0.5528153059     -1.4471612762
C     1.5471616743     0.9555292264     -4.1502207362
C     3.474667039     1.3673939649     -2.7454913145
C     2.7836847755     0.5042359962     -3.6328824542
C     2.9576829836     -0.8897477043     -3.4680157403


