96

 C     5.3964119824     0.5760552712     1.2962934019
C     4.5311509067     0.8739249203     2.4297558538
C     5.3964994361     1.4211558317     0.1807540316
C     3.7750969594     2.0393606911     2.4305448151
C     2.4584822723     2.0307146709     2.9727125273
C     1.8363860687     0.8428747115     3.421378182
C     -0.314191734     2.0322750513     3.1061873595
C     -1.6898910645     2.0457162186     3.1352792586
C     3.7798896936     -2.5422303664     1.8682430335
C     5.3997581563     -0.856646401     1.1153208388
C     4.532240271     -1.4215819711     2.1385615309
C     0.3908303057     0.8332522928     3.5040003719
C     2.5765669598     -0.3970778522     3.3334557069
C     3.9369034835     -0.345212766     2.906250988
C     2.4499320747     -2.6624263507     2.406113456
C     -0.3524313874     -0.3948255782     3.5350570114
C     1.8083964399     -1.6177855     3.1184788099
C     3.7771777976     -3.1144191284     0.5301616784
C     4.5305016568     -2.5310416764     -0.4807439473
C     5.396309533     -1.4002203622     -0.1742877292
C     5.3961962044     -0.5271014161     -1.3245384209
C     5.3929633412     0.8615187661     -1.1504898264
C     2.4599232669     -3.5799878966     0.2551825186
C     1.8343114557     -3.3747653044     -0.9960980337
C     -0.3128799392     -3.6971315972     0.197478882
C     -1.6885909728     -3.7293944814     0.1984700622
C     -1.8315388704     -2.5841576644     2.3926367581
C     0.3169913943     -3.3988100129     1.4658788507
C     1.6927592582     -3.424877294     1.4786001354
C     -2.456072115     -3.3260394353     1.363660947
C     -0.3857518499     -2.6207980047     2.4627922115
C     -2.445038285     0.8968242745     3.4883502248
C     -1.8022763189     -0.3669056559     3.5017789944
C     0.3586679822     -1.6142165117     3.1659155069
C     -2.5708110973     -1.5031664673     3.0074058399
C     -3.9324027509     -1.3112509805     2.6269490498
C     4.5260199914     -1.1310106602     -2.3229673029
C     4.5245781517     1.6920017759     -1.9741419277
C     3.7686569222     1.1080302045     -2.982786274
C     3.7712512421     -0.3368641586     -3.1564093031
C     0.3886219097     -3.4420248623     -1.0418380484
C     2.5715405792     -2.6784927235     -2.0279048851
C     3.932505084     -2.3341204009     -1.7730799188
C     2.4402886799     -0.7428744013     -3.5257176994
C     -0.3578091051     -2.8550549001     -2.1188280741
C     1.8005304661     -1.8823138702     -2.9755644532
C     3.7742701639     2.9121296204     1.2659692731
C     4.5260714205     2.5876608015     0.1593744225
C     3.9287186626     2.7127124892     -1.1558823121
C     2.45059143     1.5786267262     -3.2448805009
C     -1.6982219841     1.7016009975     -3.3343000655
C     -0.3224566764     1.6866318358     -3.3096956483
C     0.3812203147     2.6325321293     -2.4711934975
C     1.8270178276     2.5595800457     -2.4398141468
C     2.5672469887     3.1053394968     -1.3230058905
C     -0.3623703317     3.2717975172     -1.422343856
C     1.7994234123     3.5277723382     -0.1575123583
C     2.4427253654     3.4346448627     1.1025961996
C     -2.4470832551     -3.4607462868     -0.9709230572
C     -1.8075972645     -2.8404501739     -2.0739159414
C     0.3507111421     -1.9255330732     -2.9922816813
C     -2.5784963966     -1.844471416     -2.8088320012
C     -1.8410776747     -0.7713283281     -3.4394635518
C     -0.3954226245     -0.8134163038     -3.5101281263
C     0.3066123144     0.4391144586     -3.6872343991
C     1.6822935221     0.4414323003     -3.7200717208
C     -2.4661413288     0.4906994835     -3.5654891745
C     -2.4545498094     2.5798735974     -2.5148547136
C     -1.8121613767     3.2252966246     -1.4280717897
C     0.3495291308     3.5635493541     -0.1825731936
C     -2.5796576845     3.3635674103     -0.1959159266
C     -1.8387948199     3.3731736184     1.0466874031
C     -0.3931821953     3.4558045636     1.0415505718
C     0.3121941521     2.9832335422     2.2129672813
C     1.6879398617     3.0107017901     2.2275405362
C     -2.4605485985     2.8511479907     2.2043557461
C     -5.401615328     -0.0733395122     -1.4153211341
C     -5.4041923107     1.1796891933     -0.7920821597
C     -5.4001172946     1.2705698151     0.6491033506
C     -4.5340862842     2.3827464839     1.0169555863
C     -3.7774218259     2.3101151153     2.1797089659
C     -3.9401055385     2.9343563755     -0.170203572
C     -4.5364990354     -0.3086669563     -2.563553167
C     -3.7830230514     0.7365169717     -3.0829227356
C     -3.784743772     2.0361213433     -2.427992619
C     -4.5364031468     2.2359432008     -1.2921999713
C     -3.7776786125     -3.117099635     -0.5418184993
C     -4.532431691     -2.2351518757     -1.2817910646
C     -3.9391546027     -1.6111153081     -2.4483975218
C     -5.3978088793     -1.1893569177     0.7807632962
C     -4.529373956     -2.0638391427     1.5575349384
C     -3.7742789575     -3.0343473019     0.9111239602
C     -5.4017492774     -1.276070386     -0.6160171478
C     -3.7767666934     1.0931761505     2.9778194166
C     -5.4003382981     0.1042628419     1.4226500846
C     -4.5292495693     0.0094335037     2.58497912


