96

 C     -4.8901174968     0.6602736648     0.1218026087
C     -4.9271800945     -0.7581930258     0.2922419799
C     -3.6505894694     3.2156116209     -0.380703111
C     -3.9502632776     2.3796042949     -1.4244829841
C     -4.6323068538     1.1244255976     -1.1961595284
C     -2.453502146     4.0043968087     -0.4334767231
C     -4.2195439081     0.2275057772     -2.2312220111
C     -4.194918149     -1.1752346674     -2.0322479185
C     -4.610341681     -1.6576874704     -0.7577648959
C     -3.2049934522     -1.915094099     -2.7483557321
C     -3.1822970848     0.8871323322     -2.9999018401
C     -0.8025063203     0.7945817428     -3.6116816917
C     -2.1031943775     0.1679861598     -3.5339425682
C     -2.1959625755     -1.2550203481     -3.48458477
C     1.6084812384     0.4911675552     -3.6982485237
C     0.3510766316     -0.0827798796     -3.7569810162
C     -1.7328332586     2.8395934788     -2.4866176096
C     -2.9961321088     2.2116133216     -2.4920482515
C     2.3082125394     3.7985758582     -1.4274286722
C     0.9904511514     3.7117474197     -1.9492276893
C     0.7182554973     2.6715691478     -2.9446908663
C     -0.6209403148     2.1508481255     -3.1341695173
C     1.7994231291     1.8668249415     -3.3623915183
C     -1.472279126     3.8358627413     -1.4473257744
C     0.1937432669     4.6282977474     0.1945850728
C     -0.1022738321     4.2196451169     -1.1366302963
C     -2.6351655925     -3.1380437621     -2.2066622946
C     -2.99423589     -3.5857904268     -0.9085020761
C     -3.9654728706     -2.8405120735     -0.1807131857
C     -1.9939375586     -4.2552414229     -0.1551010164
C     -1.2892575875     -3.2463988957     -2.6584032133
C     1.1125437393     -3.3792113284     -2.0345722472
C     -0.2620728226     -3.848495823     -1.8829678589
C     -0.6702315899     -4.4522350192     -0.6691116061
C     3.3481848891     -3.1022773465     -1.0113508038
C     2.093131727     -3.7326498136     -1.0019972964
C     0.2578938714     -1.5296588479     -3.5094105662
C     -1.0091035661     -2.0774919636     -3.4387182809
C     2.7766817572     -0.2618667321     -3.2881203821
C     2.661122301     -1.6047254338     -2.8482533314
C     1.378721926     -2.2669683429     -2.9059279255
C     3.6417014265     -2.0423251648     -1.9298886113
C     -1.8585966477     -4.0096820569     1.2550957953
C     -2.666750633     -3.0867476941     1.9264819789
C     -3.8306569605     -2.6375103699     1.2160737417
C     -4.4452288578     -1.3711003064     1.5199776134
C     -3.9175121364     -0.592097945     2.5159260043
C     -0.4753606033     -4.15999303     1.6106161707
C     1.5271583824     -3.300185639     2.573664949
C     0.1312547139     -3.3449471319     2.6029716075
C     -0.6101476638     -2.2311368248     3.1651027559
C     -2.0353341287     -2.1910502711     2.9153377683
C     -2.7007886725     -0.9956576739     3.2089657738
C     1.6139169609     -4.2308528078     0.2891356622
C     0.2439536409     -4.5157854166     0.4401967526
C     2.284356925     -3.8418404871     1.4744951601
C     -3.8892889462     2.7703987124     0.9868750943
C     -4.4409229769     1.4911281134     1.247674299
C     -3.9426381094     0.8439213387     2.416202898
C     -2.7886179902     1.322667302     3.1002192123
C     -2.1735846929     2.5387110966     2.7826589155
C     -2.8358622842     3.3111728414     1.7803517907
C     -0.7567724803     4.436265487     1.2493521502
C     -2.0568926295     4.1869974966     0.9391640245
C     2.2503542997     -2.1718667531     3.1038932321
C     1.5658084724     -0.9832915775     3.4441017677
C     0.1126357598     -1.0234639992     3.5238553981
C     -0.591675693     0.2352104314     3.6184809317
C     -1.995097403     0.1913668711     3.5469006912
C     1.5031938243     1.5371018865     3.1458670392
C     0.0822950717     1.5205550997     3.3798221239
C     -0.7312270131     2.6645500981     2.9980259466
C     -0.0937795283     3.7416535483     2.3474324824
C     3.543050083     -2.1581529655     2.4890156133
C     4.2005218274     -0.9574402172     2.3086496092
C     3.5784735822     0.2596540646     2.739509983
C     2.2583014079     0.2898037955     3.2535002375
C     2.1160298713     2.6650048598     2.4588291164
C     1.2871901949     3.7307613036     2.0663439441
C     4.8221942907     -1.6033963615     0.0253075007
C     4.1032331241     -2.8462932211     0.2031873295
C     3.5373779972     -3.147590949     1.430115588
C     4.9127585998     -0.6946231776     1.0734079168
C     3.7019836149     0.6410812545     -2.7102721915
C     4.5323222143     0.2604354862     -1.6107622291
C     4.563367881     -1.1204276294     -1.3133629872
C     4.1437900411     2.5161570679     -0.6416874086
C     3.3587960296     2.8910957078     -1.8110036614
C     3.117798473     1.9635849519     -2.7925007786
C     4.8283930503     0.7189089706     0.8064341519
C     4.7175544736     1.2222911766     -0.5181861805
C     1.4778753342     4.3877226357     0.7750695075
C     4.073327549     1.3100132701     1.874232007
C     3.3621854418     2.5010376604     1.713177802
C     3.5556685171     3.1775020967     0.4698594291
C     2.5275223142     4.0584483147     -0.0298994865


