96

 C     -4.4178768538     0.5730488984     -1.7346015551
C     -3.6865884541     -0.5374234391     -2.2376685167
C     -3.7361259947     -1.7960714224     -1.5029666378
C     -2.7020296088     -2.8009475532     -1.7158106156
C     -2.5526796167     -3.81016054     -0.7309522035
C     -1.4589101363     -1.2206067383     -3.2142486754
C     -1.5597862703     -2.5167483184     -2.5940798287
C     -0.3737159828     -3.3555486139     -2.5083313451
C     0.8187871221     -2.9172871842     -3.1249917005
C     -4.0569223018     1.9243630677     -2.0291948476
C     -3.0291564427     2.1782393352     -2.92583752
C     -2.2750306958     1.0793121864     -3.450006727
C     -2.5461285805     -0.2615174534     -3.0967171427
C     -0.1543718603     -0.7243901655     -3.6248512818
C     0.9308694841     -1.5900431857     -3.6158220757
C     -0.2153273469     -4.2935454567     -1.4025645548
C     -1.2759598004     -4.442749352     -0.5030520388
C     2.1363612608     -3.3142267823     -2.6710789861
C     2.2645427586     -4.0835849298     -1.5266523578
C     1.0801024364     -4.5421952622     -0.8682056593
C     3.0398228534     -2.2034403171     -2.89676836
C     3.2323530256     -3.7125113282     -0.5111325125
C     4.1362057571     -2.7012945362     -0.7564168263
C     4.0647418181     -1.941594373     -1.999163294
C     -0.91794307     1.5585102497     -3.6327301148
C     0.1673088013     0.6928279552     -3.6306357766
C     2.5573732112     0.2346972268     -3.0908403311
C     2.2873774367     -1.1092196339     -3.4330658188
C     1.3022398331     -4.4308775964     0.543160632
C     0.2407666231     -4.2796163136     1.4413386603
C     -1.0532374767     -4.5402600798     0.9092466925
C     -2.24024105     -4.082449139     1.5636179845
C     -2.1163973281     -3.302235034     2.70115223
C     2.5753915959     -3.7891477379     0.7653965665
C     2.7190602711     -2.7703948099     1.7412319533
C     1.5752230078     -2.4847859356     2.6169664669
C     0.3938704912     -3.3309468978     2.5387129265
C     -0.8010804311     -2.8939026774     3.1514829695
C     2.5489090517     -0.2196937932     3.0995133583
C     1.4670758414     -1.1837710263     3.2255881234
C     0.1597680584     -0.6912314431     3.6318036234
C     -0.9206071594     -1.5629924274     3.6304978259
C     2.270300989     1.1226830159     3.440879661
C     3.6909203578     -0.4968447493     2.2429264407
C     3.7475219172     -1.7616779282     1.519441137
C     4.4159920428     0.6131839133     1.729989288
C     4.4773807579     -1.7988642727     0.2971104623
C     -4.1195959641     -2.7175657905     0.7811654485
C     -4.052422467     -1.9464558301     2.0171064863
C     -3.2100905688     -3.7258491049     0.5448604013
C     -3.0260728     -2.1945630216     2.916979102
C     -4.8718097226     0.5641949137     -0.3617620329
C     -4.8696808359     -0.5908683468     0.3471086563
C     -4.4200288765     -0.5971861294     1.7213690314
C     -2.2797823517     -1.0914222185     3.4435095709
C     -2.5572920162     0.247866817     3.0893599444
C     -3.6965757674     0.5173724604     2.2267240995
C     -2.7231029874     2.7863937651     1.7079433019
C     -3.7508673099     1.7757280008     1.4918609399
C     -4.4768428505     1.8020370855     0.2669354319
C     -2.5763206498     3.7964359689     0.7235486582
C     -3.2292275824     3.7084425827     -0.5543253138
C     -4.132314929     2.6950760079     -0.7934784685
C     -0.4004382447     3.3540512034     2.5077731261
C     0.9105471554     1.5958859213     3.6193738272
C     -0.1698406694     0.7241580204     3.6250008614
C     -1.475851558     1.2130465743     3.2102988753
C     -1.582050647     2.5086040249     2.5898039517
C     0.7925626201     2.9224863251     3.1281815817
C     -4.4657944171     -1.8264679992     -0.2803340212
C     2.1093097377     3.3268123314     2.6784071174
C     2.2367703235     4.0968882214     1.5343817054
C     1.0518511478     4.5488494823     0.8722146721
C     -0.2438380284     4.2929261857     1.4024985542
C     -1.3024588596     4.4361818671     0.4996545967
C     4.1185776937     2.7251256782     0.7700444487
C     4.04746975     1.9650248167     2.0125658096
C     3.0182767281     2.2211103615     2.9069414651
C     3.2098388283     3.7312565684     0.5219136344
C     4.8743555165     -0.5666527602     -0.341303912
C     4.468126714     1.824632863     -0.2823979023
C     4.8700032182     0.5946625797     0.3572702712
C     -0.8073979706     2.8900652869     -3.1533557603
C     0.3831496885     3.3338036218     -2.5368371849
C     1.5694761118     2.4942889316     -2.6113727509
C     1.4705472857     1.1926913896     -3.220322991
C     2.5564749252     3.8042192308     -0.7566758404
C     2.7089318503     2.7863001852     -1.7320482559
C     3.7423385949     1.7833668609     -1.5070183281
C     3.6951093071     0.5182415176     -2.2306656712
C     4.4247802642     -0.587709019     -1.7154429794
C     -1.0758446898     4.5349551037     -0.911933559
C     -2.2581975328     4.0704984003     -1.570032051
C     -2.1263979801     3.2910020321     -2.7071636166
C     1.2790496932     4.4387930216     -0.5384492448
C     0.22127078     4.2815866101     -1.4399553843


