96

 C     1.8325819591     2.6462586267     -3.1094137869
C     0.6564804286     3.2968752446     -2.6542794413
C     -1.8242138436     3.1413547643     -2.2807079372
C     -1.652310719     4.0043829935     -1.1807670932
C     -2.4915087151     3.8976780494     -0.0004246409
C     -3.603120737     3.1168701512     0.0028451712
C     -0.6438497878     1.4544936562     -3.715161533
C     -0.623593993     2.7248250525     -3.0129472061
C     -1.840527509     0.695785464     -3.7164048721
C     -3.0373902045     1.1399564548     -3.0471733524
C     -3.0414225909     2.3249768613     -2.2966712789
C     -3.9463474405     2.3606233195     -1.1772671428
C     0.5667865721     0.7237826996     -4.0058682594
C     0.5692314184     -0.7422057744     -4.0044251417
C     1.7881188827     1.3992173783     -3.7766377602
C     1.7928087902     -1.4131082359     -3.773870232
C     -3.0236445969     1.1460032252     3.0541939852
C     -3.0310642114     2.3295314021     2.3013699806
C     -3.9410223806     2.3629651284     1.185979226
C     -4.624460128     1.2062084794     0.743332766
C     -4.6203969128     -1.2325613841     0.7457416901
C     -4.5473176294     -0.0123317253     1.4726429087
C     -3.7835757348     -0.0098798224     2.6698468794
C     -3.7955816845     -0.0151625197     -2.6571268324
C     -4.5539178918     -0.0152371502     -1.4564979309
C     -4.6277799817     1.2047507598     -0.729264863
C     -4.6237173995     -1.2340251742     -0.7268596445
C     -1.8139451561     3.1458761112     2.2783291469
C     -1.6470009809     4.006719342     1.175916416
C     -1.8237770816     0.7031612558     3.7189174516
C     -0.6271207925     1.4618597806     3.7108060016
C     -0.6100360013     2.7307959363     3.0059930349
C     0.668410344     3.3021282692     2.640444886
C     1.8465543337     2.6524105559     3.0915775437
C     0.5872631355     -0.734268362     3.9989584469
C     0.5848163966     0.731720475     3.997514198
C     1.8051022373     1.4066907575     3.7614642055
C     1.8097926855     -1.4056342102     3.7642343929
C     3.0123339084     -0.6782515568     3.4146405277
C     3.0100653091     0.6826298466     3.4133044604
C     -3.9331071233     -2.3861563326     1.1906667823
C     -3.0232587947     -2.3474892523     2.3059823958
C     -3.0197908814     -1.162461537     3.0564693526
C     -1.8214090369     -0.714300293     3.7203148863
C     -0.6009119623     -2.7392795372     3.0113854127
C     -0.6222296524     -1.4690142981     3.7136947851
C     0.7987903872     4.1381206044     1.4509509849
C     -0.3637951324     4.4188457052     0.7178055269
C     3.0727243647     2.672592965     2.3013641972
C     3.1478469946     3.3784411616     1.1306927183
C     2.011591072     4.1546986849     0.7020438456
C     3.7245168328     1.3983733591     2.3948301299
C     3.1426918943     3.3761725694     -1.1558433701
C     2.0083785458     4.1532824721     -0.7236295418
C     0.7922183243     4.13522434     -1.4670455562
C     -0.367055787     4.4174113843     -0.7292412232
C     3.062298985     2.6680072449     -2.3247645754
C     3.7291753737     -1.393621305     2.3975802102
C     4.261385157     -0.7283087697     1.2559549751
C     4.258947462     0.7325847528     1.2545177575
C     4.2799247226     1.4630751699     -0.0132335991
C     3.8069953592     2.8022652889     -0.0134950709
C     3.7136672     1.3936029275     -2.4186385973
C     4.2532321185     0.7300728342     -1.2794291709
C     2.9946379457     0.6758447754     -3.4324685797
C     2.9969070069     -0.6850368644     -3.4311284781
C     3.7183221604     -1.3983890686     -2.4158905209
C     3.8163382151     -2.8019816568     -0.0079725125
C     4.2556661409     -0.730817673     -1.2779917294
C     4.2847988744     -1.4612258531     -0.0103541776
C     2.0222400331     -4.1603925371     -0.7154340383
C     3.1539552148     -3.3803566401     -1.1491868951
C     3.0712020476     -2.6747717805     -2.3195027946
C     -0.3523044227     -4.4324642624     -0.7205115148
C     0.8060284882     -4.1478647451     -1.4588751032
C     3.0816252856     -2.6701862197     2.3066295519
C     -0.3490428436     -4.4310235934     0.7265377683
C     0.8126011911     -4.1449689607     1.4591174025
C     2.0254515904     -4.1589795094     0.7102386696
C     3.1591075568     -3.3780925104     1.1373536544
C     -3.592692663     -3.1412702882     0.0090213454
C     -2.4784805097     -3.9183737103     0.0072872523
C     -1.6336143988     -4.02227418     1.1838380611
C     -1.803425161     -3.1598131545     2.2845451023
C     0.6794283818     -3.3070636802     2.6469586358
C     1.8553945701     -2.652530855     3.0968095505
C     -3.0335398485     -1.1685152536     -3.0448929108
C     -3.0336206546     -2.3520569245     -2.2920530324
C     -3.9384323503     -2.3885055974     -1.1725808309
C     1.8414251814     -2.6586767453     -3.1041893235
C     0.6674988134     -3.312317093     -2.6477624406
C     -0.6144719151     -2.745253527     -3.0075558756
C     -0.6389605462     -1.4763824582     -3.7122772986
C     -1.8381605593     -0.7216759167     -3.7150077184
C     -1.6389234076     -4.0246181394     -1.1728429486
C     -1.8136981382     -3.1643416426     -2.2744858959


