96

 C     -1.2318517593     -4.1290291315     1.6778937067
C     -2.3562569762     -3.3039583788     1.9021579891
C     -3.0788153454     -1.0492814758     2.8323765031
C     -4.1292324586     -1.0646147827     1.8706329693
C     -4.6703358166     0.1471654993     1.3238982888
C     -4.2383373091     1.3572305256     1.7899027776
C     0.0141162707     -3.9239633126     2.3594377365
C     0.1091475708     -2.9406495158     3.3226646641
C     -1.0193189882     -2.0954230268     3.5907141953
C     -2.2375743361     -2.2305773758     2.9024701467
C     -2.585447177     0.2395616149     3.2925814941
C     -3.2216340889     1.4110827784     2.8062536892
C     2.2851595331     -3.3613971993     1.5266757647
C     1.1079424526     -4.1172688016     1.4429080872
C     1.3094921515     -2.1743206943     3.4473781915
C     2.404613678     -2.3647099385     2.5958345687
C     -3.3900790868     3.13063044     -1.3325869756
C     -4.2354871529     2.3220356981     -0.5130164361
C     -4.0847712468     2.4905975257     0.8933994306
C     -3.0601498994     3.3040022983     1.4444172916
C     -0.9089449775     4.3620970881     1.0951031592
C     -2.2100135219     4.0789341671     0.6189630745
C     -2.3890867871     3.9678705365     -0.7865129828
C     -0.4966383868     -0.8015659641     3.9660439028
C     -1.2123983765     0.3857592134     3.7490572051
C     -0.4507230962     1.6086047113     3.553298539
C     -1.1484673212     2.7599773073     2.9863467579
C     -2.5100343996     2.6215501231     2.6220308071
C     -0.4187244705     3.7670854779     2.3070747348
C     -4.6664270771     1.0053533721     -1.023332512
C     -4.9398450244     -0.0367425323     -0.0940740747
C     -2.8454609515     2.604381281     -2.5760686377
C     -3.2295395561     1.385124167     -3.0424509882
C     -4.19934553     0.5850710684     -2.3077518908
C     -1.4761150731     3.0311059192     -2.7245425025
C     1.8932700416     1.4404478702     -3.1989553992
C     3.2033758136     1.6073331443     -2.6951772863
C     0.8985560058     2.427152141     -2.8429838361
C     -0.4691466212     2.1740068134     -3.2437230569
C     -0.8740834578     0.8559694054     -3.7094133026
C     -2.2557864685     0.5189434081     -3.6532054801
C     0.2062951507     4.4848144231     0.2041897447
C     0.092887473     4.1102343768     -1.170281577
C     -1.211111835     3.9289816554     -1.6631429391
C     2.4738416871     3.3767942465     -1.1355624716
C     1.1927086046     3.4126438496     -1.8189252694
C     3.4825060734     2.5468818563     -1.6524363172
C     -3.9007984903     -0.7679716676     -2.5903560165
C     -4.1417659436     -1.7950607374     -1.6415368832
C     -4.6687811003     -1.4039692796     -0.3821874975
C     -3.3088521395     -2.9411867707     -1.6840548968
C     -2.6885023213     -0.8063158202     -3.4131160797
C     -0.3632521493     -1.5935385045     -3.5186491079
C     -1.76905493     -1.8682353867     -3.3246438465
C     -2.1634331808     -2.9969365301     -2.5522518392
C     1.9403912312     -2.2510282344     -3.0626140197
C     0.5859820677     -2.5757269606     -3.032580924
C     1.4790570636     0.1035120438     -3.6241820217
C     0.0785870019     -0.2292077045     -3.7410875419
C     2.3959012777     -0.9591868198     -3.4660842504
C     -1.7328445888     -4.3262858722     -0.7139705285
C     -2.9885224463     -3.6695982369     -0.4899516804
C     -3.3081451279     -3.1499737642     0.8008297288
C     -4.1877764017     -2.0469960499     0.8359808484
C     -0.8915505587     -4.5765075667     0.3443725452
C     0.1842700168     -3.6380111662     -2.1229275525
C     -1.1887493122     -3.8662125258     -1.9609734425
C     0.532467202     -4.4871404444     0.1659460343
C     1.0932420063     -4.0333314135     -1.0406504442
C     3.0582561645     -3.2037858401     0.307497524
C     2.8957191002     -2.7966005598     -2.1133358089
C     2.4372075618     -3.4982956509     -0.9820355773
C     4.1435551334     -2.3106518348     0.3496449687
C     3.9997910473     -1.8997116866     -2.0456661501
C     5.1567379359     -0.3744284371     -0.4958999962
C     4.6622195514     -1.694158466     -0.8362655755
C     4.4814732787     2.175655328     0.5616574248
C     4.5341070017     1.988898822     -0.8122410769
C     4.90848776     0.7021744936     -1.3500358079
C     4.1188584617     0.4972321902     -2.549713821
C     3.7068156771     -0.7672666473     -2.9049610018
C     1.3905538323     4.178550891     0.9305418102
C     3.4717359449     3.0253010495     1.1201941496
C     2.5464994371     3.711507768     0.288996271
C     0.9253701559     -0.8486792181     3.8884660451
C     1.6914574446     0.2849117416     3.6044738609
C     0.9969382403     1.5545615207     3.4849587035
C     3.0231704592     2.4271000593     2.3474361714
C     1.7128585188     2.6431076584     2.8401006454
C     0.9983736501     3.6880681036     2.2213244004
C     4.9758644337     -0.2050078277     0.9305338678
C     4.3065541268     -1.3624474336     1.4478727579
C     3.3455753294     -1.2657168184     2.4754100546
C     4.6643394086     1.0453321088     1.4496816108
C     3.7020256099     1.1668118791     2.5047121949
C     3.0091176253     0.053134346     3.0148802869


