96

 C     -4.324443914     -1.9838253462     -0.325628834
C     -3.579921688     -2.5722923827     -1.3669672078
C     -3.4258593891     -1.7916344021     -2.546577755
C     -2.2882357084     -1.9782318969     -3.392883549
C     -1.4044972499     -2.9960598066     -3.1474697278
C     -2.2307292468     -3.7909619967     0.3832990612
C     -2.5735539077     -3.5752277922     -1.0293032814
C     -1.5818417136     -3.8519524832     -1.9978012098
C     -0.9770647776     -4.3476454954     0.6897005328
C     -0.0088706879     -4.6436007804     -0.3270332492
C     -0.2740534173     -4.3239421813     -1.6407408907
C     -2.8811738393     -3.016340543     1.4245669004
C     -2.1180938453     -2.5954709029     2.5976722289
C     -4.0137350564     -2.2497752105     1.0552318265
C     -2.5549608372     -1.4538471672     3.3051881833
C     -0.4340887935     -0.4283402029     -3.9384835417
C     0.5195682364     -1.5261596801     -3.7036179579
C     -1.8030211468     -0.6892203411     -3.816854204
C     0.0087857774     -2.7845550854     -3.3479957818
C     0.722324697     -3.6489202008     -2.4533867533
C     1.985415187     -3.3051572878     -1.9360721265
C     2.6361157423     -2.102561621     -2.4324692948
C     1.8883511721     -1.2398416149     -3.3248505567
C     2.3072076127     0.1001611492     -3.4874105671
C     4.1806373316     -2.1863247159     -0.4951074232
C     3.7787679653     -1.5533390201     -1.704145599
C     3.3843218352     -3.2301513009     0.0909355652
C     2.3207242977     -3.8220699603     -0.6101885685
C     1.3066739315     -4.4096750941     0.1901909067
C     -2.7178049612     0.2954504923     -3.3182977957
C     1.3632330212     1.17737423     -3.7138845691
C     -0.0212940804     0.9541541901     -3.7927949771
C     -0.938869446     1.9821191231     -3.3161258229
C     -2.3093830297     1.6071296228     -3.0067508396
C     -0.3795234188     3.1869106418     -2.7301347377
C     -1.2027672218     3.9222139431     -1.8483377706
C     1.9154257318     2.3704884554     -3.1650796786
C     1.0710117228     3.3639664181     -2.6066402282
C     1.6005823565     4.1021064206     -1.5101980871
C     0.7242503056     4.5692146335     -0.4840757254
C     -0.633492566     4.5485000211     -0.6796978064
C     3.1870183989     2.0420700099     -2.5983519727
C     4.4382830877     1.924230981     -0.526867188
C     3.6414273003     2.6839348069     -1.4196615624
C     2.8184141928     3.6958521646     -0.8632940027
C     4.1651599051     -0.1533088441     -1.8823857171
C     3.4243745445     0.6311181762     -2.8043825677
C     4.8057378302     0.5476088101     -0.8167283464
C     -2.5253668591     3.4919383952     -1.490595468
C     -3.1020378735     2.3279941447     -2.0162130344
C     -4.1296986044     1.6349878653     -1.2172029128
C     -2.7416231337     3.8676764742     -0.1131517115
C     -3.613816585     3.1641123799     0.6634786182
C     -4.4152325545     2.1161293907     0.0837212488
C     -1.4972643224     4.3257324626     0.4350026973
C     -4.4048719685     0.2296759349     -1.4782306368
C     -3.7306271684     -0.3888170319     -2.55470377
C     -4.7642917906     1.2226315697     1.1591038476
C     -4.97517161     -0.123917808     0.9144968024
C     -4.8183037635     -0.6309006939     -0.419866668
C     -4.0133669831     1.6393278491     2.3388803923
C     -4.458737934     -1.1200219477     1.8292429145
C     -3.7277160287     -0.7253206929     2.9370615262
C     -3.4826220485     0.6865213263     3.1873589948
C     -3.2321016024     2.794548647     2.0049273005
C     -1.8873832454     2.9559163669     2.4411214662
C     -0.9972534198     3.7970786763     1.6581001067
C     1.2718983299     4.2225987297     0.7991684108
C     0.4478350555     3.683810742     1.8208527815
C     2.43883513     2.3222681979     2.5378491192
C     1.0198440314     2.6554817188     2.6810382996
C     0.1310381542     1.7308456983     3.3448530944
C     -1.3107433044     1.9156802096     3.2815170336
C     -2.1365606002     0.8301605353     3.6604745574
C     2.9066461226     1.1304760962     3.1236826995
C     1.9987412263     0.1739421014     3.6588613817
C     0.6305399158     0.4256562126     3.7406805041
C     4.7087169168     0.8463111023     1.4925521691
C     4.3105055253     2.0853221876     0.8916583525
C     3.2356626352     2.8579857046     1.4305129443
C     2.6087320968     3.7611623118     0.5565917774
C     4.057029299     0.3980743878     2.622216932
C     4.1931216315     -1.9214699414     1.8193650356
C     4.779247429     -1.4460094782     0.58400139
C     5.047824415     -0.0934921799     0.4285910172
C     3.803267432     -1.0157200903     2.8032906244
C     1.1688036219     -4.0514308066     1.5708967566
C     2.1290592474     -3.2483173545     2.2220177059
C     3.339096718     -3.0316455965     1.5158047708
C     -1.6026583297     -0.5061063263     3.7992712652
C     -0.2305747333     -0.741820284     3.7798409372
C     0.234977836     -2.0464921081     3.3606285488
C     -0.7208751669     -2.9502860006     2.7386260995
C     -0.2251645932     -3.9336740286     1.8563018539
C     2.5145589245     -1.1539588138     3.4302622816
C     1.6554302884     -2.2424471686     3.1599022118


