96

 C     4.6975184319     0.8592118789     -1.1486098352
C     4.8324440086     -0.4699084858     -0.8649846137
C     4.7869896498     -0.9480264961     0.512255603
C     4.3920206547     -2.314923788     0.4579865559
C     3.6303061886     -2.8542967073     1.4910500733
C     3.9572226693     1.2700221643     -2.302813781
C     0.8484624521     -0.0604954212     -3.9720842473
C     -0.4137443617     0.5162717491     -4.2366385229
C     1.9627777277     0.8469130119     -3.6850372301
C     3.1619581761     0.3468250861     -3.0423521313
C     3.2686339192     -1.0667898143     -2.7146238958
C     4.2168798997     -1.4494285743     -1.723833847
C     4.0538206635     -2.6330582917     -0.9245464722
C     2.587730732     -3.8128518611     1.1990552643
C     2.3032077339     -4.1461102509     -0.1195078318
C     3.0204886605     -3.4973258916     -1.2003856615
C     2.1274553438     -1.9559322166     -2.9579690615
C     0.8868991231     -1.446414319     -3.5167138724
C     2.0734181218     -3.1716211035     -2.2361797272
C     0.9056950895     -1.6461331299     3.5408026329
C     1.8633453728     -2.4870049301     2.9622149435
C     1.5029687614     -3.5825684406     2.1098892033
C     0.945899131     -4.3096360465     -0.5284597358
C     -0.1256733439     -4.2145358634     0.3776585928
C     0.1604645101     -3.7882633823     1.7444557149
C     -2.172359539     -3.1765893129     2.0296077277
C     -0.8483164611     -3.0730308018     2.4958187138
C     -0.5054024906     -1.9729794086     3.3683855541
C     -1.5131312352     -0.971320513     3.6555094515
C     -1.0692772751     0.2865022931     4.1084033491
C     -1.4365739855     -4.0146166739     -0.184469385
C     -3.709380164     -3.1342612995     0.2935743742
C     -2.4745418187     -3.7117543912     0.7259178251
C     -2.804756906     -3.0197711253     -1.9654893829
C     -1.5834344194     -3.6023510883     -1.5722818924
C     -3.8854479159     -2.8117254516     -1.0421462539
C     -1.6347678794     -0.173837414     -3.9970186147
C     -1.6280966855     -1.5059301142     -3.548147364
C     -0.3606949097     -2.1508042771     -3.2705438423
C     -0.3931538551     -3.270902874     -2.3445194388
C     0.8203092609     -3.7545864262     -1.8604425722
C     -2.8164910801     -1.9496134986     -2.9146493468
C     0.3343663553     0.6048409374     4.242105748
C     1.3389791684     -0.3030890493     3.8823161645
C     2.6166602318     0.2190094021     3.3732044865
C     0.4711592321     2.0078374476     3.9950488785
C     1.6265359338     2.4907938582     3.4162687405
C     2.7239085695     1.6068950993     3.17540058
C     1.3691256067     3.8454816355     -1.8438163986
C     1.4944160787     4.0099061478     -0.4424475962
C     0.3318976617     3.8296148494     1.7800758112
C     1.5630912988     3.4455903435     2.3402689653
C     -3.1832595687     -2.2145884508     2.3729298087
C     -2.8512446707     -1.0422273637     3.077007381
C     -3.5911051457     0.1841336927     2.7617548325
C     -2.9724242543     1.4737973957     3.0466467619
C     -1.7706308599     1.4927026678     3.7833562516
C     -0.7920257423     2.5388303397     3.6059311631
C     -2.1075171812     3.4624832625     1.8277783184
C     -0.8754143312     3.441776703     2.5100817051
C     0.2733445226     4.0931617825     0.3342792388
C     3.5134919542     -0.6415288633     2.6092957304
C     3.180383596     -2.008605622     2.5535605308
C     3.4870492852     2.1543505568     2.0698982186
C     4.2936916663     1.3419910251     1.2581186403
C     4.3719579743     -0.0860812758     1.5598694203
C     4.4957493742     1.8125282033     -0.073172022
C     2.7482546132     3.2615792813     1.5417458238
C     2.7510724557     3.5701886918     0.1716895632
C     3.7371302622     2.8902530635     -0.6021693814
C     2.3518975218     3.0586907082     -2.5930329075
C     3.4847971894     2.5918699227     -1.9973297394
C     1.6700310982     2.2363673546     -3.5474704405
C     -1.1003904237     3.6568398468     -1.7518027544
C     0.1160714339     3.6467851612     -2.4702377861
C     0.3261099542     2.7225350688     -3.5695988859
C     -2.2252723199     2.8689471317     -2.270912283
C     -1.9946338781     2.0366346161     -3.3980961476
C     -0.6849126841     1.9073359003     -3.9740401341
C     -3.1852379228     2.5709889757     2.169994162
C     -2.1726150198     3.7396421887     0.4296806597
C     -1.006309981     3.9836807309     -0.3434598157
C     -4.8230106344     -1.0578764628     0.9850983194
C     -4.1741439762     -2.2278092667     1.3275860251
C     -4.672419916     1.2416841068     0.7865304957
C     -4.55289943     0.1423870443     1.7232126275
C     -3.9756681632     2.4095006377     0.9912974671
C     -4.5417961214     -1.5687808399     -1.4046172208
C     -4.8185374037     0.7154246157     -0.547333175
C     -5.0037319243     -0.7081444596     -0.4214142748
C     -2.628994234     0.7698233995     -3.5341163095
C     -3.3216866959     3.0690314401     -0.1097541988
C     -3.3312649841     2.5109450632     -1.4070289996
C     -4.1097781939     1.2847349898     -1.6382582995
C     -3.6893971538     0.3730919861     -2.6940698626
C     -3.8685121799     -1.0281821211     -2.5480209062


