96

 C     -3.7674403933     -2.7734059774     0.7325756244
C     -3.9470932953     -1.800075404     1.7377040465
C     -4.7955822574     -0.7118348767     1.3830929239
C     -4.6954668842     0.5629536223     2.0588849032
C     -3.728987554     0.7273237498     3.0355410102
C     -2.6042026012     -3.6317133864     0.7469336378
C     -0.3615060524     -4.0507194908     1.4180058423
C     -1.6102644639     -3.4975830678     1.7458724397
C     -1.6665330878     -2.4042725767     2.7028159937
C     -2.8858673228     -1.6090303334     2.7402340773
C     -2.8299912098     -0.3586803019     3.3756527091
C     -4.2015303616     2.7925001057     1.1461355854
C     -3.1864385907     2.9580600396     2.1623190004
C     -4.9596083697     1.6184776475     1.1042899672
C     -2.9761500863     1.959338106     3.1063159603
C     -1.6406003718     1.6375985389     3.5183123333
C     1.900570952     2.3534711927     2.5822936117
C     3.1552225436     1.7418803403     2.7005025485
C     0.7653935081     1.6786621557     3.1625182531
C     -0.5208914891     2.3150822765     3.0221318698
C     -0.7297821641     3.3179787567     1.9842353739
C     -2.0385134846     3.5977313722     1.5669185634
C     -0.3664161299     -0.4883076174     3.6326998111
C     -1.5697662066     0.2146072007     3.738385198
C     3.2700382217     -2.3440350857     2.4506248783
C     2.1190726713     -1.8263429749     3.1017284763
C     2.1146706272     -0.4013572012     3.4021346181
C     0.8560442559     0.2905744463     3.5291462913
C     3.2645666065     0.3685127828     3.1208904257
C     -0.4195134066     -1.8737642645     3.2168593395
C     0.8278042087     -3.6678153126     2.103857079
C     0.8479590982     -2.5363876968     2.9405991436
C     -4.7667138533     1.5353102243     -1.3422020671
C     -3.9511887949     2.7317431494     -1.2947164864
C     -5.238364063     0.977356276     -0.1634027578
C     -3.6700226826     3.34342729     -0.080481134
C     -2.3318308948     3.8168319459     0.1686288449
C     1.1105603387     3.6143735248     -1.2950461493
C     2.4353884148     3.6502290167     -0.8296857561
C     0.0539528798     3.779640887     -0.3290604403
C     -1.3115216294     3.7171207409     -0.7939404145
C     -1.6108118417     3.0729325953     -2.0705603
C     -2.9158765067     2.6008491056     -2.2830779784
C     1.6856439537     3.3056500588     1.4929744157
C     0.3433985721     3.5997081114     1.0641404532
C     2.7266464658     3.5266527768     0.5770926044
C     -3.2669693427     -1.426374103     -3.0386896193
C     -4.2625698434     -0.7286666556     -2.2878856516
C     -4.2531835638     0.6842134457     -2.3988279504
C     -3.1407584811     1.3633313703     -2.991921469
C     -0.737076615     1.2365924587     -3.5236986745
C     -2.0581558826     0.6606545401     -3.5592212554
C     -2.1914274795     -0.7422811178     -3.6586386818
C     1.6620329623     0.8970567068     -3.6592396641
C     0.3956300824     0.3606965833     -3.7624996028
C     0.8194515541     2.9079704195     -2.5382937539
C     -0.5213823093     2.4711433436     -2.8236994027
C     1.8822082106     2.2208062036     -3.1577945203
C     -4.7304004077     -1.3206961652     -1.0280706142
C     -5.1641954834     -0.465639324     0.0172001437
C     -2.7502768092     -2.7115183432     -2.6094823899
C     -3.2036093736     -3.2671454516     -1.4395866108
C     -4.1626877878     -2.5564076803     -0.6169557086
C     -0.0082784162     -4.3621262539     0.0606190388
C     -2.2606677213     -3.9546225427     -0.5957252655
C     -0.9009513768     -4.1301969725     -0.9855539963
C     0.2790070605     -1.0833353031     -3.6184960562
C     -1.0149068516     -1.6031818959     -3.6297766801
C     -1.3422351694     -2.8046527996     -2.9709502817
C     1.0071577706     -3.027445939     -2.2381415031
C     -0.3798470589     -3.4693007572     -2.1767177725
C     1.3487834777     -1.8599805304     -3.0127271741
C     3.8248179241     0.9667122207     -2.8408079861
C     2.8160332055     0.0824948423     -3.3475990628
C     2.6650163105     -1.2404970247     -2.8770639845
C     4.7579488009     0.5029104588     -1.9308965963
C     4.6967084256     -0.8700402354     -1.5015932829
C     3.639530719     -1.7362961067     -1.9110575038
C     3.2461144118     -2.8227706782     -1.0273377132
C     1.9467446294     -3.4720492984     -1.2029712728
C     1.4031038295     -4.1628286511     -0.0979323195
C     4.5097543281     2.5609535472     -0.6000706338
C     3.5256314715     3.0332450901     -1.5506037586
C     3.2303147006     2.2806311559     -2.6764312259
C     5.1580101359     1.3387335067     -0.8079378078
C     4.9950869604     0.813774588     1.5908151215
C     4.2344771632     2.0259415147     1.7818156064
C     4.0144694692     2.8905187559     0.7179817995
C     5.4235366154     0.4620175893     0.3063525264
C     4.7733775848     -1.8732129064     0.7154807537
C     4.3803776028     -1.5160880477     2.0742028033
C     4.4202865144     -0.1910780251     2.4636808634
C     5.2228975868     -0.9046808926     -0.1534868421
C     1.9264140036     -3.9454141864     1.2202140159
C     3.8740358483     -2.8926201053     0.2487497972
C     3.1181833456     -3.3143628166     1.3940874486


