96

 C     4.2576496094     1.6822520293     1.3589596301
C     4.2013131552     -0.6410488826     2.0865378556
C     4.6932132344     0.391597068     1.2033910702
C     3.4701088959     -2.909635989     1.6127300312
C     4.3506868589     -1.8780841963     1.3714214664
C     0.6962979595     -4.2015105709     -0.2232911707
C     3.0053232941     -3.7413055148     0.5236158308
C     1.6599023363     -4.1054848791     0.793841044
C     -0.6900526073     -4.2025032788     0.1919473376
C     -2.9987423438     -3.7352611054     -0.5516170384
C     -1.6535871236     -4.0984587085     -0.8244642514
C     4.2839323085     -2.3350381478     -1.0400413558
C     4.9002303651     -0.1430115042     -0.1109760545
C     4.7756291676     -1.5816958971     0.007843328
C     2.3961982599     -3.4360109651     -1.8165099669
C     3.3862785859     -3.440490115     -0.7860324479
C     1.0640700254     -3.7915271052     -1.5746915814
C     3.8492145641     -1.6600597236     -2.2420313351
C     3.9577107814     -0.2433628685     -2.3690092071
C     4.4461875785     0.5621876267     -1.2525233285
C     3.9303685665     1.9306807846     -1.0769320165
C     3.9283140282     2.482129912     0.2141442904
C     3.0729853551     0.357101226     -3.2789573853
C     2.7031447528     -2.3557107065     -2.735885924
C     -1.2841067317     -3.5065623747     -2.1106632285
C     0.0323088028     -3.2286815117     -2.4460670164
C     0.2939908137     -2.085805786     -3.305339354
C     1.6802551364     -1.6828169635     -3.4462975112
C     1.9709668486     -0.3635453187     -3.839697274
C     1.420038353     1.8726530159     -3.8316592249
C     2.6768877228     1.7445586303     -3.1691124812
C     2.9839448479     2.5095180896     -2.0268626958
C     0.5442767492     2.8680337187     -3.4728604212
C     0.8456889517     3.7151032032     -2.3585834701
C     2.0002446333     3.515768818     -1.5869539131
C     -2.3665510219     -2.687430519     -2.5516131704
C     -2.1276672759     -1.4433984621     -3.185720312
C     -0.7714940701     -1.1524133789     -3.6095031025
C     -0.4394920467     0.2234434515     -3.9855456391
C     0.9163760822     0.5608193444     -4.1416126194
C     -0.8659964971     2.6163446497     -3.5235815642
C     -1.3883403195     1.313896675     -3.7252648745
C     1.9112242569     3.9085788624     -0.1866981748
C     2.9353730864     3.4511234365     0.6523558566
C     3.3729859851     2.0065444058     2.4416525158
C     0.6121750729     4.2619191165     0.4156672572
C     0.4426395415     4.0943900446     1.7989996235
C     1.4713298643     3.5031504685     2.5964264838
C     2.6903766438     3.2041092115     2.0429369057
C     0.8771597196     2.5902701294     3.5412515427
C     1.3985623531     1.2860257183     3.7335454653
C     2.7159085049     0.9925796452     3.183816182
C     3.1116063136     -0.393476234     2.9617167156
C     2.1359019873     -1.4678499248     3.1741624483
C     2.3738857595     -2.7074541987     2.5311106656
C     -0.5998164605     4.2652459312     -0.3860422753
C     -0.4303972103     4.1075604497     -1.7705426341
C     -3.1025950408     -0.3698813604     -2.9655417184
C     -2.7058977765     1.0174511029     -3.1776577799
C     -2.6787793152     3.2206835805     -2.0208831505
C     -1.4595155598     3.5228227765     -2.5722077357
C     -2.3894000007     -3.4472702758     1.7906459566
C     -1.0575284512     -3.8019993796     1.5462662989
C     -3.3794805908     -3.4436090197     0.7601672791
C     -1.9619484129     -0.3897663154     3.8359130141
C     -1.6721893765     -1.7063810322     3.433021308
C     -0.2862181522     -2.1093498723     3.2891624961
C     -0.0253635663     -3.2461933783     2.4216748699
C     1.2908514222     -3.5226051825     2.0842740426
C     -2.6955633904     -2.3733994513     2.7177830732
C     -0.9066922845     0.5316375586     4.1444743437
C     0.4489314354     0.1944122649     3.9859780092
C     0.7799406308     -1.1789436786     3.6000385771
C     -4.2763340912     -2.3393658746     1.0221357017
C     -4.8910467002     -0.1402611937     0.1088854738
C     -4.7674820499     -1.5781386022     -0.0202927786
C     -3.0634418403     0.3356972267     3.2803805228
C     -3.917240174     2.4864467585     -0.1973279137
C     -3.9196920448     1.9257143745     1.0897467429
C     -4.436495962     0.5563682477     1.2554817954
C     -3.9486005932     -0.2575558199     2.3661345916
C     -3.8411279499     -1.6733785916     2.2289560826
C     -1.9884288041     3.5056935656     1.6111612244
C     -0.8337312914     3.6986292671     2.3842020511
C     -0.5329285181     2.8433411863     3.4923527022
C     -2.9728520341     2.4970101345     2.0438159078
C     -2.666346437     1.7236242024     3.1805290411
C     -1.4094072859     1.8460332461     3.8439771845
C     -3.362249028     2.0265169633     -2.4282081229
C     -2.9236019853     3.4578566724     -0.6285531077
C     -1.899126665     3.9085119623     0.2137679248
C     -4.3427556855     -1.8650056504     -1.3859758701
C     -3.4629227159     -2.8954273578     -1.6347107989
C     -4.6836423158     0.4036487038     -1.201600358
C     -4.1924842049     -0.6229624862     -2.0921649429
C     -4.2471471983     1.695073896     -1.3478714642


