96

 C     -2.4132052015     -0.9216573352     -3.4471701327
C     -3.0705546211     -1.8802854942     -2.641208781
C     -4.237851172     -1.4265084307     -1.9713386516
C     -4.6694497069     -2.0398014006     -0.7315951934
C     -3.910352561     -3.0548204227     -0.1790923533
C     -1.0347391409     -1.0534527378     -3.7796983171
C     -0.2486745249     -2.106388965     -3.3139674321
C     -0.8598816743     -3.0541045634     -2.3844283339
C     -2.2627424694     -2.9540018827     -2.076179643
C     -2.7116108316     -3.5296093475     -0.8502384794
C     1.4020120838     -3.6776605986     -1.6762841098
C     0.0195460799     -3.7256738596     -1.45319889
C     3.1038891236     -0.3754064116     -3.312318036
C     1.7650545394     -0.6044238015     -3.6608993079
C     1.1929215784     -1.9238721645     -3.3871194707
C     1.9909252196     -2.8653285111     -2.720430432
C     -4.9602874077     -0.9951930131     1.4766079769
C     -4.1131371055     -2.0162473354     2.0389974864
C     -5.2519984261     -1.0136136364     0.1112529666
C     -3.648613296     -3.0585170056     1.2438289205
C     -2.320822734     -3.5572814566     1.4396358329
C     -3.2033487853     -1.3852945246     2.9636141367
C     -1.9022202637     -1.8547477032     3.1561307622
C     -1.455413084     -3.0282819987     2.3999173832
C     -0.4068233691     -3.9993800601     -0.1011482928
C     -1.7868329348     -3.9354503173     0.1462420619
C     2.344758934     -3.8048265248     -0.6141808506
C     1.9235014108     -3.7470052149     0.7435974757
C     0.5080332971     -3.8499066911     1.0052777085
C     -0.036404419     -3.3049142626     2.2426777556
C     0.8238309854     -2.6245045015     3.1020282138
C     -4.9923393573     1.4245272458     -0.0074648835
C     -4.6869518582     1.4447192095     1.4145188182
C     -5.2214446291     0.2193767693     -0.6456348365
C     -4.6068346217     0.2576143077     2.1177936805
C     -3.4832150092     0.0319040379     2.9940857663
C     -2.4461871145     0.9874009489     3.1482099766
C     -0.9210071442     -0.9061973015     3.6366930526
C     0.3884541667     -1.401849815     3.7628232945
C     -2.4466218752     3.9211113809     0.1802138005
C     -4.1992907486     2.4605474904     -0.6408800255
C     -3.5842134151     3.2032676776     0.4212084514
C     -1.1350418397     0.5205266854     3.549994296
C     -2.5819002136     2.2763915302     2.4874596171
C     -3.7174660962     2.4782653153     1.6554266137
C     -1.4116513401     3.9883555033     1.1692057131
C     0.0221696069     1.4059350617     3.4723338118
C     -1.3891747648     3.0841559422     2.2526709327
C     -1.8349488512     3.8925447158     -1.1162372853
C     -2.2467226005     2.9745151164     -2.0934637969
C     -3.5056946119     2.2441317613     -1.8575093863
C     -3.7251267461     0.9572507662     -2.5102221491
C     -4.5668545528     -0.0323094433     -1.9110179466
C     -2.7147071618     0.4713647341     -3.3555422711
C     -0.4493097171     4.2234134603     -0.9304063623
C     1.8695028148     3.8301655172     -1.2763433313
C     0.561037276     3.7546019571     -1.7946836111
C     0.2112973744     2.7606796898     -2.8014271819
C     -1.1944886669     2.417894516     -2.9586262752
C     -1.4929586254     1.2086808379     -3.6067524474
C     1.048643368     4.0934577712     1.0354354717
C     -0.2064130397     4.341269036     0.4763497037
C     2.1220380467     4.0588004521     0.1056693043
C     1.49548532     -0.5558350803     3.8853924226
C     1.3434555334     0.849849285     3.7187848356
C     -0.0863138755     2.674996983     2.7809103664
C     2.49525461     1.5462665085     3.2846570782
C     2.381505809     2.7532573671     2.5720128967
C     1.1141069156     3.3103532365     2.264963626
C     2.9257106749     2.9930324662     -1.7931630955
C     2.6216766677     2.013999345     -2.7652440311
C     1.2494878169     1.8515098833     -3.2432670415
C     0.8790691331     0.5506748989     -3.7564915474
C     -0.4773991032     0.2796779447     -3.9396367987
C     3.5222956436     0.9221108361     -2.824061243
C     3.8931765908     2.7729889163     -0.7684736154
C     4.6354164464     1.5650237642     -0.6933509007
C     4.5400212921     0.7226751246     -1.8320046727
C     4.2815120324     1.5928167533     1.7731987074
C     3.5057781972     2.8076476908     1.6477143577
C     3.3642607972     3.4037803623     0.4194513563
C     5.0479154306     -0.4469730253     0.6951960154
C     4.8710634234     0.9586289901     0.6243733495
C     2.6596808329     -1.2666731863     3.3867469008
C     4.4596220095     -1.2159692722     1.7607151759
C     3.7506582936     -0.5762772029     2.8169597551
C     3.6959856431     0.8404226165     2.8171437885
C     3.5819292383     -3.1937907554     -1.0560590204
C     4.3916331395     -2.5372031968     -0.146245918
C     4.017145974     -2.4878432073     1.2411906399
C     2.8132189843     -3.0854599343     1.699590242
C     2.2232087064     -2.5190567612     2.8634430153
C     4.7784187095     -0.7033620748     -1.7330411942
C     3.9127968802     -1.3737829217     -2.6753661508
C     3.3466707775     -2.6034697474     -2.3551313626
C     5.0203438801     -1.2713693121     -0.4933204256


