96

 C     -3.4965421747     -2.6688703894     -1.1269863224
C     -4.4871158372     -1.7714134359     -0.6598106584
C     -4.8064563818     -0.5611744677     -1.361571137
C     -2.772389172     -2.3334729976     -2.3577585846
C     -3.1449080851     -1.1627330651     -3.0439314952
C     -4.1687505504     -0.276859038     -2.5534738413
C     -0.9478614433     -3.8338721847     -1.7084267896
C     -1.4209428091     -2.8348876382     -2.5845420694
C     0.9829342018     -2.3504705977     -3.1428011331
C     -0.4370831373     -2.0691837783     -3.3235072467
C     -0.8231296985     -0.7734291917     -3.8487060779
C     -2.1604005252     -0.3627594141     -3.7175755263
C     1.9087572811     -1.3851513619     -3.5723409974
C     1.4461245008     -3.3278555261     -2.1639514268
C     2.7483040744     -3.1657051151     -1.5019822581
C     0.4601218212     -4.0847238147     -1.5176536836
C     2.8830266468     -3.6562403132     -0.1825985131
C     -4.6255927881     1.7916949238     -0.6707947344
C     -3.983968313     2.0969043315     -1.9369776593
C     -5.0239446952     0.4990794886     -0.3825575796
C     -3.7585870745     1.0821298691     -2.8560409386
C     -2.5191558268     1.0292401538     -3.5609774009
C     -2.9525090688     3.0585477417     -1.6809488218
C     -1.7249403063     3.0459258725     -2.3739573348
C     -1.5224546737     2.0155353385     -3.3848926618
C     1.5047941735     -0.0996601761     -4.0643990565
C     0.1506306037     0.2697670149     -4.0889795147
C     -0.1904189073     1.6621613288     -3.8060279497
C     0.8430579269     2.5380977768     -3.4361515679
C     -2.7401100926     2.6332301556     2.3957613872
C     -3.7722466542     2.0353562888     1.6515340016
C     -3.9896738169     2.5733961709     0.3511467828
C     -2.9902421498     3.3914507929     -0.2834980096
C     0.6586419963     3.4861957168     -2.3614741106
C     -0.5689706393     3.6549492285     -1.7242667236
C     -0.5779053169     3.9860410564     -0.2953662843
C     -1.8329964855     3.8246728078     0.4084207404
C     -1.8208329086     3.5757005568     1.7975002715
C     -4.1188501192     0.6500238165     1.9450256933
C     -4.8060512527     -0.0644733821     0.9306799815
C     -4.6078231925     -1.4787576582     0.7545038863
C     -3.2897928067     -0.103566567     2.8984341983
C     -3.2239685516     -1.5053629135     2.7677275378
C     -3.86945418     -2.1854378032     1.6776419399
C     -0.7731450081     2.5762384766     3.5895657528
C     -2.042026644     1.9306442858     3.426965254
C     -2.1950786943     0.5314303995     3.6061933709
C     0.2983952942     1.8709430784     4.0576563144
C     0.1840440686     0.4506958202     4.2808046263
C     -1.0145863577     -0.2436269852     3.9988850924
C     1.6185527315     2.1850923656     3.5989464794
C     2.9984712867     2.9690746068     1.8074686882
C     1.8123184599     3.1223309536     2.5383601304
C     1.9043594528     3.6180678551     -1.6592926015
C     1.9173268351     3.8381055116     -0.264740066
C     0.6591138761     4.0039408112     0.4484217254
C     0.6427580429     3.7328363432     1.8891671774
C     -0.5971921901     3.5423645432     2.5170737192
C     3.071542472     3.3609526528     0.4165564467
C     -1.6267284195     -4.1366527165     -0.484251828
C     -2.8433162497     -3.5128484328     -0.1347706064
C     -3.0451039391     -3.2700329858     1.2481715565
C     -1.9464659966     -3.3516308668     2.1770542339
C     -0.7039879503     -3.9037830927     1.8156364628
C     -0.6302100738     -4.45485907     0.5061288444
C     1.7838928142     -4.238651335     0.5190344193
C     0.6236905717     -4.5346090797     -0.1627063282
C     -0.8710178006     -1.6288218739     3.6104684567
C     -2.02906283     -2.2496621878     3.0763654307
C     1.4638346629     -0.1081617818     4.0312147434
C     1.6292291011     -1.4089707978     3.5152245126
C     0.4320679076     -2.2126962191     3.3291712377
C     0.5000470241     -3.3848570899     2.4619415388
C     1.7321377448     -3.6848707311     1.8552299827
C     3.7965750534     -0.6025462061     2.4337630341
C     2.8702066625     -1.68825129     2.7944545578
C     2.8979541496     -2.8579389896     2.0214549701
C     4.6092878705     -0.758782379     1.2887699253
C     4.560375538     1.636992438     0.7666626199
C     3.874982429     1.8582338655     2.0096476147
C     3.4893996218     0.7619621381     2.8384054076
C     2.3708788178     0.9764601048     3.6596484092
C     4.9171957796     0.3563231396     0.4163730609
C     2.8826516915     2.7931089199     -2.3106192063
C     3.9121698407     2.1510520407     -1.5898197713
C     4.0505943491     2.5538079292     -0.2296485625
C     3.5887513658     0.1415421749     -3.0258787472
C     2.5460488228     0.8324646371     -3.7466233764
C     2.2125886309     2.1283648383     -3.405586733
C     4.8087087574     -0.0839534596     -0.965322774
C     4.2938976461     0.7807472717     -1.9676844125
C     3.6650532993     -2.9401757157     0.8035235295
C     4.4718204741     -1.8996997949     0.4326671659
C     4.5127960868     -1.4813002475     -0.9524328566
C     3.6254796698     -2.0695519728     -1.8975118192
C     3.2165796593     -1.2370515017     -2.9610751147


