96

 C     1.7487367074     -4.1116219868     1.0497399895
C     2.4701682598     -3.253955408     1.8861823797
C     3.6950199768     -2.7326898775     1.3471091722
C     4.255281924     -1.4956899739     1.8277262134
C     3.6039575907     -0.8084517372     2.8198492801
C     0.3392586784     -4.3038880916     1.2443973218
C     -1.7652809975     -3.5749082322     2.0835812312
C     -0.3777196237     -3.6053384484     2.2512054896
C     0.2825673853     -2.5475079379     2.9968823611
C     1.7262626503     -2.4622251047     2.8863400468
C     2.3353563023     -1.2900433419     3.3456507566
C     3.6592230868     2.6651963527     1.5652136695
C     4.2134829056     1.3796778598     1.7927617085
C     3.5965335361     0.632174428     2.8330281104
C     2.3520017316     1.034990334     3.4028587936
C     0.2660573656     2.3281974374     3.1251597907
C     1.7197832365     2.2435619092     3.0660256032
C     2.4648814542     3.1008250744     2.2112077883
C     -1.7566911812     3.3976611421     2.2662942999
C     -0.3660472962     3.4326501215     2.4236919589
C     -2.5648063784     -2.5335455469     2.673509093
C     -1.9473868354     -1.3903777278     3.2302860513
C     -0.4999683904     -1.39851015     3.4142985094
C     0.1693755277     -0.135225368     3.6648839697
C     1.5682356994     -0.145194789     3.6996223948
C     -2.6698374269     -0.1254360499     3.1693809735
C     -1.934559587     1.1388462266     3.2674425839
C     -0.508163241     1.1535998288     3.4736820191
C     -2.5319798183     2.3050023974     2.7348376876
C     4.821373827     0.6537908689     0.6693497211
C     4.8583840568     -0.773585077     0.7199478477
C     3.6326132806     3.2403829107     0.2328231057
C     4.0853598346     2.5080706813     -0.8340134544
C     4.7275475182     1.2298171996     -0.6273059194
C     2.4510617323     4.0430781739     0.0799570048
C     1.7059552993     4.0474606302     -1.132666788
C     0.3680951352     4.4619089464     -1.0127898103
C     0.3920234652     4.2181803168     1.4453844043
C     1.772881387     4.0225882832     1.3371367817
C     -0.2550529166     4.6542816115     0.251878758
C     4.4460454583     0.4257480137     -1.7767232676
C     4.3983388531     -0.9855398199     -1.7012460418
C     4.6704025483     -1.5773811386     -0.4346165603
C     3.4909572292     -1.6503819353     -2.5850547112
C     3.5220155352     1.1596525846     -2.6256964729
C     1.2213311904     1.1525067117     -3.5149188267
C     2.4979723236     0.5004590594     -3.332846693
C     2.5701578337     -0.92371423     -3.3697666705
C     -1.2035568089     0.8772417026     -3.7685758238
C     0.0555842936     0.3013233374     -3.7978522924
C     2.074307951     3.1152747506     -2.2018051046
C     3.2994155986     2.4450167575     -2.0577374487
C     -0.6443749194     4.0138917951     -1.9471726708
C     -0.3267231828     3.0174392878     -2.9064680839
C     1.0269287641     2.4894131326     -3.0086428465
C     -1.4131578864     2.2269708307     -3.3321979786
C     2.8703683602     -2.9119103592     -2.2154144275
C     3.0982037709     -3.4783176669     -0.9341239462
C     3.9807018104     -2.8074652699     -0.0404025652
C     2.0308390289     -4.2155565726     -0.3569915091
C     1.579328977     -2.9677070232     -2.8107240042
C     -0.8709061749     -3.1448174252     -2.4459177901
C     0.4825605185     -3.6356989595     -2.2056530107
C     0.7707323535     -4.357954014     -1.0218744595
C     -3.1965595927     -2.9578847978     -1.6233662028
C     -1.9479626839     -3.6003581547     -1.5612324275
C     0.1230438546     -1.1647941729     -3.6505946509
C     1.3781700269     -1.7299930052     -3.5087539255
C     -2.3918624422     0.1135707307     -3.4820134944
C     -2.3272990977     -1.2726718626     -3.196567275
C     -1.0503465937     -1.9452732552     -3.2207600806
C     -3.387989844     -1.7892515454     -2.4274154311
C     -1.6006682478     -4.2395257361     -0.2893713589
C     -0.25182598     -4.5366293606     -0.025060067
C     -2.3956869972     -3.9904960154     0.856199194
C     -4.7691947144     -1.5782878586     -0.5714477857
C     -4.0775253962     -2.8443785264     -0.4737110274
C     -3.6470804278     -3.3010644634     0.7608698103
C     -5.0017445969     -0.8119349129     0.5623757473
C     -3.3063131078     0.9716198633     -2.8235024258
C     -4.2295943069     0.4899991584     -1.8568589489
C     -4.3451107708     -0.9206196752     -1.779247373
C     -1.9182349324     4.0520231019     -1.3055391528
C     -3.8285583346     2.6158287478     -0.5379322047
C     -2.9513093846     3.1125100246     -1.6057038539
C     -2.7011604697     2.2813196618     -2.7145528102
C     -4.8867238018     0.6263369455     0.5012275517
C     -4.4979545473     1.3150358079     -0.6763350997
C     -4.3815236787     1.0417419087     1.785100201
C     -3.7136256568     2.2238222063     1.9033398331
C     -3.5541253695     3.081738537     0.7703223519
C     -2.410764073     3.9135014188     1.0666635701
C     -1.6649953863     4.457141498     0.0579674201
C     -3.7903099203     -2.4576083085     1.9296500697
C     -4.4581149366     -1.2529951805     1.8378959051
C     -3.9420278784     -0.1123042144     2.534226249


