96

 C     -2.8403222292     -0.3132043496     3.4152252636
C     -2.8803451484     -1.6299749016     2.9336452546
C     -3.8355956589     -1.8783597518     1.9033934811
C     -3.6196152081     -2.9358181893     0.9618234541
C     -2.5468142235     -3.7782277133     1.11778981
C     -1.6231357676     0.2396142958     3.9424504718
C     -0.4188525206     -0.4977677766     3.9839806831
C     -0.4254267614     -1.8821106031     3.5270603031
C     -1.6721990236     -2.4482371667     3.0330634459
C     -1.5914518456     -3.5767684851     2.1920285063
C     2.0200161204     -1.766153649     3.3596366235
C     0.8320775013     -2.5003085422     3.1493804694
C     1.9639285265     2.3207532463     3.2647862925
C     0.7862439164     1.7130733127     3.7562496308
C     0.8020233918     0.2765260192     4.0322281632
C     2.0089013141     -0.4249860093     3.8332397138
C     -3.1872735364     -1.9160237743     -2.5384796186
C     -3.1997973049     -2.8423864583     -1.47990021
C     -3.9994389662     -2.4938087001     -0.3519497452
C     -0.5231615039     -4.6203539325     0.4191983599
C     -1.8358606833     -4.2736103806     -0.0359618149
C     -2.0493057607     -3.7228995554     -1.3205892387
C     0.528630962     -4.6168443433     -0.4554456106
C     0.3425511527     -4.1052774797     -1.7941322998
C     -0.8852057066     -3.5663097596     -2.2060977883
C     0.8914961221     -3.5866997832     2.1792100214
C     -0.3366828074     -4.1209813287     1.7624256647
C     1.8416023021     -4.2752374609     0.0028064291
C     2.0554765544     -3.736251073     1.2923277286
C     -4.5542977901     -1.1817432475     -0.2020170424
C     -3.8752267285     -0.6629310841     -2.4478578453
C     -4.4575105339     -0.2135423376     -1.2269701
C     -3.1739474151     0.2530226076     -3.3028814693
C     -3.1518337339     1.5912757455     -3.0045273055
C     -2.0001095863     -0.3889882618     -3.8316643109
C     -1.9529696977     2.3515004777     -3.2385705047
C     -0.7757661483     1.7473279225     -3.7354767446
C     -0.7926792106     0.3133294484     -4.0243469154
C     -0.8249263658     -2.4712964831     -3.1664752556
C     -2.0122855708     -1.7343483228     -3.3701281111
C     1.5977495146     -3.5582173627     -2.2188321608
C     1.6793931454     -2.4222466306     -3.0497006396
C     0.433064905     -1.8507241016     -3.5385888348
C     0.4275870138     -0.4623298167     -3.9830564756
C     1.6324501213     0.2737007661     -3.9349008766
C     -3.8065368884     2.0848200006     -1.8093776066
C     -4.3718380073     1.2069655341     -0.8593869926
C     -4.3020524791     1.5888465878     0.5607200398
C     -3.0746797884     3.2569888903     -1.4203168055
C     -3.0172506052     3.6182704479     -0.0941307893
C     -3.6801938945     2.8122154799     0.8927484307
C     -1.9085950142     3.3995444663     -2.2570352128
C     -1.7888071521     4.1347205811     0.454285023
C     -0.6267264912     4.2653294399     -0.3303960483
C     -0.6879072661     3.8797153974     -1.7428691625
C     1.6511632779     1.6882695947     -3.6998946646
C     0.4685580319     2.4115247022     -3.4341103162
C     0.5149334621     3.4835535009     -2.4428724038
C     1.742225962     3.7491894914     -1.7966233769
C     -4.3044920433     0.5417560409     1.589814679
C     -4.4628955972     -0.8072743948     1.1929358838
C     -2.9171394206     2.9733132248     2.114903468
C     -2.8687228308     1.9572758496     3.0415010736
C     -3.5988430281     0.7435819812     2.8052064119
C     -1.7301594625     3.7342533991     1.8354546404
C     -1.6407293456     1.656251275     3.7201543659
C     -0.4575556593     2.380929769     3.4608625427
C     -0.5030831363     3.4618546504     2.479291051
C     1.8011775846     4.1371832322     -0.4119084907
C     0.6391975436     4.2616665232     0.373916002
C     0.7000719939     3.8633331161     1.7828697851
C     1.9203816098     3.3776077704     2.2926975185
C     3.6915308425     2.8171893035     -0.8622417442
C     3.0292091584     3.6148704504     0.1318403888
C     3.0863549517     3.2416502459     1.4547297237
C     4.3124176407     1.5904017446     -0.5412143173
C     4.3818949044     1.1957233751     0.8754049116
C     3.8172913146     2.0654628911     1.8332466525
C     3.6085626655     0.7658780413     -2.793203518
C     2.8793922112     1.9822221168     -3.0185864625
C     2.9286039909     2.9898623816     -2.0829012244
C     4.4713784385     -0.8000784296     -1.1949268316
C     4.3140317187     0.5525901679     -1.5796760256
C     2.5529514803     -3.7700763068     -1.1464507291
C     3.6264144233     -2.9299444213     -0.9829314429
C     3.8432391145     -1.8642457424     -1.9149706507
C     2.8881824614     -1.6058651548     -2.9429461646
C     2.8491973138     -0.2847922303     -3.4126798456
C     3.1948648435     -1.9412824152     2.5263894097
C     3.2066600229     -2.8581116439     1.4595329251
C     4.0065785208     -2.5000476222     0.3347558769
C     3.1621948756     1.5617216886     3.0239212246
C     3.1832443743     0.2208219924     3.3102362055
C     4.4664476799     -0.2280903792     1.2302138319
C     3.8838042098     -0.6879684281     2.447021651
C     4.5624663604     -1.1871232032     0.196608257


