96

 C     -0.1389429377     -4.2226788146     1.1906407359
C     1.0116247832     -3.8102186289     1.8750288041
C     2.215987669     -3.8967928407     1.1384945126
C     3.3788558907     -3.1702170029     1.5333479918
C     3.3049867907     -2.3129983419     2.6192499818
C     2.0290014717     -2.1020454048     3.2777343718
C     0.8604116942     -2.8074407899     2.9237748343
C     -1.4391592135     -3.8293099313     1.6270950834
C     -1.6283179128     -2.7789323601     2.5571157709
C     4.796120881     -1.5982242244     0.3033726424
C     4.7833977185     -0.7146467876     1.4618981375
C     4.0890195093     -2.7711134756     0.327844253
C     4.0045229429     -1.04575572     2.5774001429
C     3.7088844469     2.7698862895     0.836626202
C     4.8031484677     0.6186321625     0.9855037716
C     4.0378590617     1.632925335     1.6208047486
C     -3.8433309348     -2.3992612603     1.4995453609
C     -2.8893179711     -2.0393004795     2.4945735463
C     -0.4364390703     -2.1888398255     3.166056405
C     -0.4916619725     -0.8258617423     3.6376653587
C     0.7460556835     -0.0618276296     3.7674451253
C     1.9632122113     -0.7293798304     3.6384986797
C     3.165385421     -0.0574575793     3.1760861718
C     0.7873364448     1.3838672836     3.5927153064
C     1.9293189589     2.0500430837     2.9594165515
C     3.1349242333     1.2803185794     2.713292058
C     3.5924972031     -0.1052583157     -2.8758479079
C     3.9809072182     -1.1591655709     -2.0269769173
C     4.7827642052     -0.7908797281     -0.8910822007
C     4.8879720646     0.5672985927     -0.4787258235
C     3.8758411791     2.7660233933     -0.6215320259
C     4.3767777583     1.6173359765     -1.2800772279
C     3.7922583171     1.2718514368     -2.5245640828
C     3.1321829537     -2.3646598254     -1.9546628539
C     3.2802644834     -3.1727779943     -0.8119298189
C     2.3906173165     -0.1944756364     -3.6495480594
C     1.5631399169     -1.3478698499     -3.6034193393
C     1.8690164894     -2.436384517     -2.7018562582
C     0.2355599898     -1.1423304362     -4.0185991824
C     1.8371881957     1.1171962478     -3.772223872
C     0.0900794521     4.141725482     -1.4479439504
C     0.6784152248     3.3560983115     -2.4582443475
C     -0.1918800304     2.4491478159     -3.1797012436
C     0.4396226156     1.3258526703     -3.8829008359
C     -0.3071308686     0.178730465     -4.1832221592
C     2.6835245413     2.0204790923     -3.0483071692
C     2.8430391838     3.5509604516     -1.1930232277
C     2.1339290817     3.1198438487     -2.3640547785
C     -0.8255833744     -1.9969961612     -3.6000044991
C     -0.6063192843     -3.0283854841     -2.6770115236
C     0.7757252142     -3.2712528048     -2.2380027044
C     0.9624258844     -4.0152344054     -1.0129033209
C     2.1810369452     -3.9280987509     -0.3053835236
C     -0.1596508886     -4.3722546758     -0.2350284142
C     -2.0531586063     -1.2380579391     -3.6327379553
C     -4.0219515637     -0.477142306     -2.499547497
C     -3.1601010197     -1.5620676055     -2.8325814017
C     -3.0498474524     -2.7165197555     -1.952035889
C     -1.7655365613     -3.438314803     -1.8686288835
C     -1.4996062577     -4.1486239986     -0.6860660369
C     -1.2660383599     4.0011948352     -1.068615856
C     -2.1377793281     3.1270076324     -1.7263223887
C     -1.5982439199     2.3604777033     -2.8413246898
C     -2.3662493056     1.2012489142     -3.2871314208
C     -1.7042785416     0.1174722212     -3.9106815549
C     -3.5886831012     0.8826095565     -2.6618535525
C     -4.8563133744     -0.5289083777     -1.3301280774
C     -4.7984030979     -1.6389131926     -0.5075672294
C     -3.9210390067     -2.741982666     -0.8325807602
C     -3.4784755703     -3.2835524314     0.4220225828
C     -2.3061741067     -3.9765813871     0.4882077396
C     -4.8482419349     -0.1888061748     1.485210183
C     -4.7653058195     -1.4527166732     0.940402509
C     -3.7807518465     1.5827165983     2.4962785254
C     -3.9949674101     0.1622973455     2.5868177078
C     -2.6755835117     2.1362390841     3.0801902836
C     -4.9305259181     0.8030770435     -0.7608746497
C     -4.2615398543     2.0601865515     1.2082277477
C     -4.9713139501     0.9748613065     0.6154892771
C     -1.3689611937     4.2369823689     0.376227712
C     -2.0297532014     3.2624476875     2.4591740158
C     -2.3936581894     3.644051807     1.1388929561
C     -3.4664456543     2.9477827498     0.4399635448
C     -3.3468733967     2.7078965187     -1.0007715863
C     -4.104879554     1.6645455417     -1.5566452515
C     2.1315349785     4.1503348064     -0.0939286325
C     -0.6656333384     3.2539390827     2.8797428297
C     0.3606326364     3.8207593244     2.1077645437
C     -0.0657905043     4.439266545     0.8877528362
C     0.825082449     4.4916347129     -0.2398506159
C     -2.958741646     -0.700039719     3.0479510264
C     -1.7483590145     -0.1005193796     3.6059588128
C     -1.6818887671     1.3062742104     3.6965352695
C     -0.440611231     2.0340273841     3.6128869745
C     1.6987470047     3.2622474246     2.2113276531
C     2.6159527856     3.5829077605     1.161009918


