96

 C     3.8585025435     -2.1634949575     -1.2007302388
C     3.203868414     -3.1486837868     -0.441616245
C     3.4373697421     -3.0874402843     0.9608593448
C     2.4342792873     -3.5695775349     1.8798321457
C     1.3335929235     -4.2197458729     1.4031732178
C     3.3427895929     -1.751365229     -2.4766156661
C     1.4393161978     -1.410139458     -3.9005035547
C     2.120229652     -2.2533011731     -2.9807844279
C     1.3556875769     -3.2354481192     -2.1943493557
C     1.9582267482     -3.7317260645     -0.9670589978
C     1.1129163988     -4.3663298457     -0.0385399369
C     -2.1793801913     -3.9152446583     1.2022772996
C     0.0750764636     -4.0373821411     2.0446919373
C     -0.9125101382     -4.3841913985     1.0686254422
C     -2.9618932537     -3.6308644489     0.0275116467
C     -2.9124855704     -2.7340629195     -2.2039705445
C     -2.3466839863     -3.6207698602     -1.2615877911
C     0.029667183     -1.4931121712     -4.0526074933
C     -0.7288154477     -2.4492112403     -3.3547109234
C     -0.0752727934     -3.3514273329     -2.3986730938
C     -0.9183017844     -3.96869165     -1.3893413715
C     -0.2821955536     -4.4833866885     -0.2439067223
C     -2.1037096174     -2.1450250709     -3.2243863689
C     -2.4937547475     -2.9590823416     2.2366540665
C     -1.4684354146     -2.3675209569     3.0251013958
C     -0.1463224063     -2.9785668864     2.9782198477
C     1.0096433202     -2.2359703419     3.4290902279
C     2.2948365506     -2.6497270065     2.9737528609
C     3.376188179     -1.7242415717     2.8263110957
C     0.8427630496     -0.8529867022     3.8558459874
C     1.9926466677     -0.0222733891     3.8713134833
C     3.2469505096     -0.4475847422     3.3064830997
C     -0.5031665889     1.2431614212     3.7184461941
C     -1.7171345932     1.866995763     3.4115269895
C     -2.8722764814     -0.2891945782     3.0838694165
C     -1.6356449872     -0.979296791     3.4329844767
C     -0.4591285211     -0.2103147782     3.798701272
C     -2.9032849979     1.124315371     3.1684651875
C     -3.6130381881     -2.2239537329     1.7595576185
C     -4.6480266261     -0.0942130879     1.3284765692
C     -3.8565557336     -0.9066797659     2.1963318184
C     -3.9524208168     -1.8083502308     -1.8572703889
C     -4.446439858     -1.7352715487     -0.532016593
C     -3.9288971799     -2.6572018569     0.4105106676
C     -4.8607357203     -0.4706284255     -0.0522415547
C     3.0326841128     2.8908592119     2.1031378043
C     3.8605039335     0.6640485838     2.6086082997
C     3.0965713806     1.8191000527     2.9654476541
C     0.6924493176     2.041633263     3.5067223647
C     1.9181854979     1.4006426563     3.6811752084
C     1.8019630496     3.6204757116     1.9661012134
C     0.6419351815     3.2297675352     2.6485695101
C     3.7039912236     2.8306637532     0.835727891
C     4.328787068     1.6456843311     0.3816555828
C     4.42516664     0.5158628519     1.3176684773
C     4.5257597737     -0.8493015712     0.79414686
C     4.0539898076     -1.9498831949     1.5674545546
C     4.5191612201     -1.0462586595     -0.6026617197
C     2.9386521248     3.6770578013     -0.055553796
C     2.9050200915     3.4205984032     -1.4058044538
C     3.6360064923     2.3013451724     -1.9371929219
C     4.3251160607     1.3979611012     -1.0691207254
C     4.4303893591     0.0608943319     -1.526963377
C     -1.7801730664     3.1116725662     2.6540444599
C     -0.6192250108     3.6651929189     2.0928836839
C     0.5252050196     4.251805672     -0.0747211974
C     1.7464299997     4.1233269098     0.6089517156
C     2.9300104873     1.8505850177     -3.0985553783
C     2.9731969706     0.4895789003     -3.4850409099
C     3.7684165588     -0.3935341949     -2.708930466
C     1.834739343     -0.0487987797     -4.1213154066
C     1.6947402664     2.6020751022     -3.1968618813
C     -1.9316642439     3.6673938229     -1.3571938216
C     -0.7629331173     3.4563326625     -2.0987387668
C     -0.7797750114     2.4362233131     -3.1331916249
C     0.5036852829     2.0205175859     -3.6926009765
C     0.633922744     0.7273326089     -4.265449952
C     -3.0321305885     3.136760389     1.9748307678
C     -3.0846827734     3.622208825     0.6651489012
C     -1.8987070782     4.0948409584     0.0384424774
C     -0.6779164082     4.1799892856     0.7263496006
C     0.47979093     3.9278738842     -1.5029098335
C     1.6786823432     3.5679348612     -2.1356239248
C     -4.6342286953     1.8370868709     0.0261593043
C     -4.5814471714     1.3301222532     1.3900317372
C     -3.7547416187     1.9306860725     2.3212027659
C     -3.8697638517     2.9205067542     -0.3344351902
C     -3.7272411762     -0.6082760988     -2.6147522034
C     -4.0170897001     0.677603168     -2.0989961625
C     -4.7302864042     0.7084271522     -0.8636177219
C     -0.4705933995     -0.1601684346     -4.2840260574
C     -1.9357507094     1.5695195713     -3.2613920024
C     -1.7431848001     0.2413835046     -3.8334100369
C     -2.6081713737     -0.8205321391     -3.4697772667
C     -3.1136553501     2.9044547477     -1.5731132417
C     -3.1138005347     1.7894210189     -2.4390618581


