96

 C     -3.3803202571     1.2925501302     2.664226864
C     -3.3177710958     2.4684896224     1.8932411454
C     -4.1014198336     2.4678426241     0.6997307249
C     -3.73070561     3.3020800832     -0.4108368245
C     -2.6752106961     4.181156678     -0.275406421
C     -2.2334921633     0.8362214752     3.4200784842
C     -1.0203628417     1.537219717     3.4165340437
C     -0.96227463     2.8428083865     2.7753215408
C     -2.1203462699     3.3012845758     1.9888369946
C     -1.8986228683     4.224682042     0.9478291141
C     1.4733563492     2.7472590564     3.0457599917
C     0.3282912368     3.4265773862     2.5406880091
C     -0.1468897888     -4.3733582897     1.3985369163
C     0.0116485345     -3.3640255033     2.3895740546
C     -1.190416952     -2.7218979934     2.8953598959
C     -1.0928664374     -1.38313276     3.463773558
C     -2.2706199498     -0.5794460204     3.5148145558
C     1.3900256141     -1.4257329031     3.1614534912
C     0.1685129034     -0.7173768926     3.5533649955
C     0.1738306581     0.7407791582     3.6503696507
C     1.3886099166     1.4270375715     3.5439016345
C     -2.9337715242     2.6466343293     -2.6393750402
C     -1.8538464549     3.5947251372     -2.5166733132
C     -3.8870125975     2.5320891523     -1.6273400562
C     -1.7558082668     4.3823689406     -1.3796384671
C     -0.4592179191     4.6648666141     -0.8382502456
C     0.7272233739     4.2223230196     -1.4790418605
C     1.8741035544     4.2051717469     -0.6669781233
C     0.5385289339     4.3096107745     1.4036175668
C     -0.5636030751     4.630331363     0.5957535426
C     1.8018427744     4.3121226763     0.7466612868
C     -3.9469365632     0.0704112505     -1.9079138428
C     -2.8843607683     0.1878772937     -2.9088504347
C     -4.3865823517     1.2427506967     -1.26670279
C     -2.4135936974     1.4616140351     -3.2432403015
C     -1.0075399981     1.6750734606     -3.5246609221
C     -0.0715624496     0.6312701592     -3.5496910468
C     -0.5760654873     -0.7365317898     -3.4522609673
C     -1.989955091     -0.9265124993     -3.168213842
C     -2.4288864675     -2.1817734556     -2.7275987031
C     1.7776232751     -1.5246730621     -3.1795753193
C     0.3471838636     -1.8196681761     -3.2564909376
C     -0.1446982443     -3.1000675714     -2.7736239469
C     -1.5318914297     -3.2630322791     -2.5627632564
C     2.6346138259     -2.5138925462     -2.635195439
C     2.257365145     -0.1432841379     -3.1878215998
C     1.3133556702     0.956055428     -3.2855713167
C     3.5474971576     0.127605202     -2.6759146595
C     0.6253589827     3.2659915402     -2.5876845186
C     -0.6586562555     2.9888696879     -3.0768669257
C     3.0111395991     3.3775419094     -1.0051284199
C     2.9138280589     2.4427476575     -2.0692925227
C     1.6590481508     2.2687271325     -2.7840750792
C     3.8318422826     1.3792607993     -2.0251191165
C     -3.5264675876     -2.3207397767     -1.7729385043
C     -4.1527965538     -1.1957629343     -1.2181693868
C     -4.5119373702     -1.2210425717     0.1995351735
C     -3.2795155049     -3.5085329187     -1.0163267684
C     -3.5569252306     -3.511752444     0.3498718946
C     -4.1653563938     -2.3695880121     0.9486681949
C     -2.0630650383     -4.1184334174     -1.5130199735
C     -2.552619046     -4.0348842059     1.273657274
C     -1.4160699463     -4.6476070387     0.7925804309
C     -1.1995087885     -4.7533425393     -0.6431519043
C     0.2069965312     -4.6820108256     -0.8839673518
C     2.0859122519     -3.6370095386     -1.9216455837
C     0.7319683281     -3.9650880202     -1.9989909872
C     -4.6127740312     0.049388894     0.9133862379
C     -4.6254472616     1.2408034895     0.1723014016
C     -3.5554874486     -2.2197062914     2.2654889036
C     -3.4843683053     -0.994716318     2.861058599
C     -4.1065693333     0.1455846503     2.2430304873
C     -2.454863344     -3.1450683089     2.3874693262
C     3.9693976723     -2.9344513286     -0.7686410122
C     2.8383104223     -3.8005643593     -0.7049266744
C     2.1365542702     -4.0098448058     0.5132879798
C     0.8573188575     -4.5625331869     0.3843318873
C     4.3982046272     -2.3093504317     0.3947988834
C     4.9582759465     -0.2823920527     -0.8642255956
C     4.3400295977     -0.87836796     -2.0331514924
C     3.8811797265     -2.1778084026     -1.9985208556
C     4.94973672     -0.9741062913     0.3398550208
C     3.731362097     3.0719711723     0.1826013204
C     4.4718616152     1.8663605796     0.3123236639
C     4.665981618     1.1325845386     -0.8808182816
C     3.493887987     1.6084166994     2.5800081734
C     2.7809068767     2.8622019059     2.4285867684
C     2.9371303696     3.5970866404     1.2767539313
C     4.5713564616     -0.2746522214     1.5533284968
C     4.3823163223     1.1238618843     1.5765213159
C     2.4180132978     -3.1623911422     1.6670996024
C     1.3068032697     -2.7111999433     2.5214009732
C     3.5980704921     -2.4047521922     1.5992249096
C     3.7095428803     -1.1567454516     2.2929760471
C     2.6267456341     -0.6690782886     3.0615823168
C     2.6236754853     0.7283901324     3.270473357


