96

 C     2.8228273919     -2.4207743813     2.4183527087
C     1.4408390174     -2.5012795967     2.6909590166
C     0.7216917677     -3.6343847988     2.1271140978
C     -0.7292219378     -3.6342514809     2.1240842966
C     -1.3999712496     -4.4557328133     1.1733169309
C     -2.7258613513     -4.176477505     0.7309357496
C     -1.4505087455     -2.5010139849     2.6849221959
C     -2.8313315452     -2.4202546444     2.4065470258
C     -3.4733995982     -3.2355793039     1.4055354498
C     3.5132072249     -1.1639441828     2.4434762214
C     0.7159051933     -1.277916056     3.0898911987
C     -0.7270221765     -1.2777834501     3.086879369
C     3.4917276579     1.2070320306     2.4559996918
C     2.8610424572     0.0097853021     2.8618748064
C     1.4309676842     -0.0217816168     3.181063478
C     -3.4675298574     -3.2365204395     -1.4062414997
C     -4.4172990972     -2.4044746022     -0.6994076616
C     -2.7228158149     -4.1769662656     -0.727896905
C     -4.4202078612     -2.4040079887     0.6941855929
C     -4.5200199196     -1.1467508905     1.3958838328
C     -4.8484344533     0.0547212768     0.7278916955
C     -4.4644316656     1.244251062     1.3931719599
C     -3.4997171359     1.207674502     2.4414046355
C     -3.5215787911     -1.1632976752     2.4287886335
C     0.7114114728     1.2314418856     3.2228003424
C     -0.7226216028     1.2315737655     3.2198066751
C     -1.4422279148     -0.0215173583     3.1750655223
C     -2.8709516728     0.0103120719     2.8499082637
C     2.8328727844     -2.4223845587     -2.3933027837
C     1.4520348237     -2.5030745939     -2.6716244674
C     -1.3950902658     -4.4565155471     -1.1645504033
C     -2.821286274     -2.4218645647     -2.4051080258
C     -1.439313012     -2.5028084049     -2.6776611876
C     -0.7203757919     -3.6356694586     -2.1130580649
C     0.7305380956     -3.6358024865     -2.1100287282
C     -3.5114327391     -1.1649236129     -2.4310725947
C     1.437135062     2.4766565673     -2.873381085
C     0.7239026184     3.6164242968     -2.4459395283
C     -2.8590510693     0.0084045531     -2.8502560225
C     -1.428982087     -0.0236404292     -3.169423623
C     -0.7141525893     -1.2798465803     -3.077412529
C     0.7287750209     -1.2799794247     -3.0744008583
C     -0.7110048671     3.6165558371     -2.448935339
C     3.5233531142     -1.1655708492     -2.416385501
C     -1.4226554375     2.4769201151     -2.8793509535
C     -0.7091938097     1.2294209867     -3.2119995559
C     0.7248392505     1.2292892671     -3.2090063775
C     1.4442134129     -0.0239050177     -3.1634262479
C     2.8729431155     0.0078771826     -2.8382898789
C     -2.7641700164     2.4435012564     -2.4500712508
C     -3.4895155434     1.2060393706     -2.4451829488
C     -4.8453770813     0.0542310365     -0.7365449135
C     -4.5141783545     -1.147687031     -1.4023567372
C     -4.4585980868     1.2433158545     -1.4010118931
C     -0.6736515967     -4.8981723238     0.0060427325
C     1.4011348994     -4.4567713482     -1.1587112142
C     0.6747333967     -4.8982960361     0.0088583445
C     3.4747893322     -3.2371581351     -1.3917461415
C     2.7270766411     -4.1774665369     -0.7165175522
C     3.468919601     -3.2362178516     1.4200309061
C     4.418843064     -2.4048206267     0.7126405525
C     2.724031426     -4.1769787566     0.742315399
C     4.4217521206     -2.40528696     -0.6809523157
C     4.5159553686     -1.1475814578     1.4147493708
C     4.4608175816     1.243430423     1.4118039205
C     4.8473764204     0.0538299706     0.7481333432
C     4.5217971791     -1.1485180268     -1.3834918143
C     4.4666518914     1.2424951837     -1.3823793975
C     4.8504340986     0.0533398444     -0.7163033025
C     2.7768393653     2.4429912657     -2.4385056401
C     3.5019305995     1.2053961402     -2.4305880948
C     1.3962541707     -4.4559902741     1.1791555163
C     4.2590139482     2.490714502     -0.6769253338
C     4.2561288528     2.4911765053     0.7046527741
C     2.3986508925     4.1791906291     0.7406810572
C     3.2581611533     3.2744192432     1.409107087
C     1.1803831918     4.458678715     1.4040246327
C     0.0028893897     4.9161944483     -0.6853470384
C     1.1862174892     4.4577443888     -1.390450328
C     2.4017041894     4.1787003582     -0.7218387184
C     3.263996977     3.2734837376     -1.3860644582
C     0.0000105174     4.9166561611     0.6936811129
C     -3.2555650219     3.2740830513     -1.3996737619
C     -2.3958867715     4.1791422336     -0.7318532986
C     -1.1775682406     4.4579618825     -1.395384255
C     -3.2614007745     3.275019027     1.3954981435
C     -4.2565630447     2.491959377     0.6868825324
C     -4.2536781915     2.4914966789     -0.6946951504
C     -1.1834021538     4.4588976105     1.3990908135
C     -2.3989403636     4.1796316058     0.7306666004
C     2.7666122742     2.4446310215     2.460060989
C     1.4251041279     2.4785854305     2.8893172077
C     0.713664339     3.6180653897     2.4581383294
C     -0.7212428381     3.6181974071     2.4551434256
C     -1.4346861639     2.4788486185     2.8833472469
C     -2.7743970873     2.4451408574     2.4484939528


