96

 C     -0.8635307493     -4.0313491838     0.8997426857
C     0.4665164862     -4.3736064663     0.6235330139
C     0.9556132645     -4.4447306829     -0.7322947822
C     -1.8104879296     -3.9047109905     -0.2175240083
C     -1.3005921918     -4.0022071917     -1.5274220244
C     0.0979859246     -4.1954111026     -1.7727936008
C     -4.3168645688     -1.7548075168     1.5543192607
C     -3.3910965262     -2.8130927244     1.2824615957
C     -3.0702717226     -3.2003012107     -0.0327994578
C     -4.9035891841     -1.0607858301     0.5064134623
C     -4.6015840808     -1.4317561295     -0.8455759892
C     -3.6918723328     -2.4739886813     -1.1449936664
C     2.7215876569     -3.0502296257     -1.7704416831
C     1.749314746     -2.657068359     -2.8063945988
C     2.2971344302     -3.9570683391     -0.7754100468
C     0.5116952543     -3.3147057299     -2.8309382611
C     -0.6771989638     -2.6854685831     -3.3384940897
C     -1.8747160054     -0.6739337059     -3.8383497776
C     -0.6427121226     -1.365418453     -3.8471158888
C     0.5993300012     -0.626874667     -3.8400430908
C     1.8099540875     -1.3203204616     -3.406760954
C     2.9548215198     -0.555971741     -3.1363909002
C     -2.971136475     -2.3870268567     -2.4136691732
C     -1.7986040685     -3.154873615     -2.5794043496
C     -3.0416509586     -1.2059558482     -3.1881021147
C     2.7180091908     -3.8111307312     0.6078823069
C     3.956720347     -0.9577693716     -2.1624524748
C     3.8196626391     -2.1490699477     -1.4220730719
C     4.3500317161     -2.1446540103     -0.097701698
C     3.7207162327     -2.9362781252     0.9328298655
C     4.5073766525     0.2261226595     -1.5948651703
C     4.8608523427     0.288628755     -0.2062385914
C     4.7868066344     -0.936644792     0.5224310367
C     4.6316078353     1.5049590906     0.4942407538
C     3.8953745716     1.3534416307     -2.2472152437
C     2.5531917217     3.3420080451     -1.9574244973
C     3.6613589452     2.5587801516     -1.5442347595
C     4.0335967128     2.628017753     -0.1658262373
C     -1.9149346932     0.7453402246     -3.7309387784
C     -0.7415176672     1.5054945691     -3.6688515159
C     0.5460459896     0.8262894124     -3.8206851744
C     1.7456592321     1.5642482171     -3.5035703434
C     2.941270301     0.8614780912     -3.2038085121
C     1.6307117188     2.8736660651     -2.9733884959
C     2.1773796464     -1.0457099881     3.6774885692
C     2.4776928403     -2.2248536626     2.9524623664
C     3.6548978101     -2.1796931107     2.1502339624
C     4.3550627096     -0.9538241409     1.9081177707
C     4.1509613159     1.485648187     1.8531833544
C     3.9747106793     0.2551489223     2.5533370838
C     2.905181475     0.181173741     3.4747193618
C     1.3663610078     -3.092145846     2.5724515579
C     1.5556463345     -3.9432308298     1.453245506
C     0.8390526287     -0.716989232     4.003803994
C     -0.255870971     -1.53955118     3.6766183864
C     -0.0013166749     -2.7515166978     2.9159829238
C     -1.0956919972     -3.312025657     2.1405699952
C     -2.3820548033     -2.7914136515     2.3316754048
C     -1.6770738051     0.5448867948     3.7406862221
C     -1.5561765872     -0.9133742442     3.6999512828
C     -2.6313360886     -1.65868038     3.1712898037
C     -2.8773773182     1.1236388682     3.2927955203
C     -3.9746884894     0.3349942346     2.7970379583
C     -3.8420878425     -1.0369993354     2.7239892089
C     3.2224801432     2.5603339221     2.0083444787
C     2.063947946     2.4352059522     2.8312520553
C     1.985997263     1.2751641404     3.6352861511
C     0.7221617681     0.7288830344     3.9990479763
C     -0.4272632675     2.639520426     2.9770588406
C     -0.4773386695     1.3709155515     3.7095240953
C     0.8509099892     3.9835551912     1.2747333286
C     0.8333088247     3.1252869859     2.4652065463
C     -0.3774561989     4.3632352387     0.7151881923
C     -1.6204139594     3.9273206292     1.2482595321
C     -1.6658206308     3.1016276325     2.3911421612
C     -2.8615430168     2.3669794141     2.5714879483
C     0.5051362146     4.2990878015     -1.5594625506
C     1.8265979966     4.1501287723     -1.0254806557
C     2.0231687046     3.9884575292     0.376977454
C     3.1828296268     3.2938099379     0.7753094758
C     -0.5608343336     4.4881632623     -0.7249614513
C     -2.0260489629     3.1131132158     -2.1861092253
C     -0.8507622946     2.7982339754     -3.004802322
C     0.3569839555     3.4655758642     -2.7260690025
C     -1.843188639     3.9692115708     -1.0712085993
C     -4.7658390028     0.9196701732     -0.7502249734
C     -4.6201754988     -0.209350438     -1.6280413464
C     -3.8372388914     -0.0933804103     -2.7576974144
C     -4.0104112943     2.1020507086     -0.9451319461
C     -3.1619273414     2.2094219377     -2.1422135292
C     -3.1274936104     1.1188978861     -3.0289289464
C     -3.8648092225     2.2985097725     1.5450442894
C     -4.581040875     1.0634366195     1.699637385
C     -5.0216962145     0.39047254     0.5744682919
C     -2.5495672247     3.7391838139     0.159791269
C     -3.6272810681     2.8463305657     0.2502412991


