96

 C     3.8616086821     -2.0477116338     -1.7006807084
C     2.7661839708     -2.5062776591     -2.4427117999
C     2.3324679736     -1.6410722975     -3.4971827075
C     0.9934417128     -1.7195965358     -4.0004749241
C     0.1650269878     -2.7095465184     -3.5583696393
C     4.0456417686     -2.4402058823     -0.3283567313
C     3.0472958889     -3.1517366915     0.3643720822
C     1.8771961244     -3.6466758431     -0.3811374042
C     1.8038405777     -3.3917439344     -1.7938951621
C     0.5449298466     -3.5512191936     -2.4333823943
C     0.6278957237     -3.8314351587     1.7403050554
C     0.6425978317     -3.9620050495     0.3334649579
C     1.7514187828     -3.2420291127     2.454117249
C     2.9412742176     -2.896493603     1.7965832482
C     3.6786247491     -1.833158138     2.3928333673
C     -3.0381438886     -0.9064764     -3.2846732779
C     -1.7712437355     -1.1651947143     -3.800981203
C     -1.2460251414     -2.4630877605     -3.5138956471
C     -1.7653535059     -3.2278414213     -2.4397726577
C     -2.9532828097     -2.876955966     -1.781599086
C     -3.6847468536     -1.8084667103     -2.3758914854
C     -4.839395268     -1.3734880132     -0.2916237051
C     -4.6345403674     -1.0503583857     -1.6204362035
C     -0.6605321339     -3.9578142216     -0.320452085
C     -0.6451060317     -3.8247392536     -1.7270475007
C     -0.5606112511     -3.5526555353     2.4471451987
C     -1.8186235637     -3.3850620609     1.8079627026
C     -1.8933802702     -3.6369941924     0.3947393956
C     -3.0607185967     -3.134237787     -0.3498543453
C     -4.0551266863     -2.4184775998     0.3441885728
C     -0.8637682248     -0.0406002467     -4.0089503304
C     0.4887536989     -0.3692466126     -4.2262817777
C     1.5380403888     0.512037177     -3.9018329654
C     -3.4637264534     0.4443997977     -2.9797032185
C     -2.5376858055     1.5152868834     -2.9639840011
C     -1.1818816178     1.2774181162     -3.4904362027
C     -0.1036641931     2.1817034825     -3.1511296433
C     1.2915033344     1.7764337055     -3.3414533606
C     -0.3815717008     3.3116135234     -2.2674218866
C     0.7178307454     3.9405763901     -1.6515661145
C     -4.5347767908     0.3379148545     -2.0279110094
C     -2.7917751256     2.6071494653     -2.0325859166
C     -1.6969680677     3.4854079195     -1.6570602409
C     -4.7401205746     1.3472230124     -1.103025746
C     -3.9055662627     2.5069175389     -1.1485191908
C     2.0756382365     3.4847983977     -1.8049011686
C     2.3973399748     2.3813015942     -2.5962971256
C     3.6107188363     1.6135487015     -2.2489367283
C     2.759746641     3.7286017865     -0.5586177933
C     3.8256681346     2.9623372639     -0.188286649
C     4.3384158608     1.9705527291     -1.0887255275
C     -0.5870581503     4.4573085962     0.3347333663
C     0.6155855283     4.4545705348     -0.3062690778
C     1.7960019381     4.1258495031     0.4240584701
C     -1.7692646079     4.1364372798     -0.3961913422
C     3.719649093     0.2317426065     -2.685928361
C     2.7136031997     -0.2772909126     -3.5270520903
C     5.010088953     0.9842730042     -0.2658382347
C     5.0442657538     -0.3433435794     -0.6589312642
C     4.4038764707     -0.725962521     -1.8838780632
C     4.7514118255     1.3189907507     1.1257580449
C     4.8356670005     -1.4007326923     0.3093650346
C     4.6325889159     -1.0789146577     1.6387695862
C     4.5404926744     0.3091373285     2.0487909364
C     3.923274229     2.4831923876     1.1733810703
C     2.8100505504     2.5879479356     2.0576369276
C     1.7201094695     3.4729230975     1.6837318884
C     -0.6921448321     3.9414163126     1.6790849332
C     0.4037680529     3.3052693806     2.2937810779
C     -1.2777565138     1.7773721601     3.364994674
C     0.1196166366     2.1752906021     3.1754077853
C     1.19283199     1.2644423826     3.5130526237
C     2.5499272399     1.4957961626     2.987031967
C     3.4700396805     0.419784091     3.0007828362
C     -1.531272337     0.5133254465     3.9230556283
C     -0.4868746525     -0.3743226262     4.2458823723
C     0.8674432397     -0.0527444254     4.0291456063
C     -4.3235437891     1.9924301329     1.1126460161
C     -3.8053208029     2.983019024     0.2140264271
C     -2.7351926154     3.7427118264     0.5857594419
C     -3.5978359829     1.6292900113     2.2721971473
C     -2.3802371068     2.3896947624     2.6209604676
C     -2.0524438328     3.4928522373     1.8315906005
C     -4.4038994711     -0.7051346115     1.9028532939
C     -5.0421596169     -0.316743731     0.6786144009
C     -5.0006474503     1.0113841936     0.2879570761
C     -2.7111768346     -0.2688156348     3.546831081
C     -3.7143975017     0.2473043671     2.7066493175
C     -0.1760728812     -2.7151474897     3.5736687918
C     -0.9990101494     -1.7214579744     4.0175977851
C     -2.3375820271     -1.63461796     3.5144618223
C     -2.7760632527     -2.4954892825     2.4584099242
C     -3.8689351317     -2.0295263475     1.7172263834
C     3.0370042214     -0.9292789059     3.3032771212
C     1.7686967034     -1.1819510037     3.8191109858
C     1.2363204047     -2.4763999685     3.5296389559


