96

 C     -4.0497644034     -2.1049602434     1.0159352433
C     -4.2545987495     -0.7984918482     1.4858910478
C     -4.8133767556     0.1098638719     0.5474054312
C     -4.7282964544     1.5122221975     0.7385014979
C     -4.0945886081     1.994358761     1.8819863922
C     -3.4323470567     1.0857711938     2.7785323216
C     -3.4167987878     -0.3099949157     2.5750549049
C     -3.1114387782     -2.9682192209     1.6320029922
C     -2.1396229192     -2.463626187     2.5581091482
C     -3.6700107544     3.2440706182     -0.6228913712
C     -3.05462189     3.7961667503     0.5791746826
C     -4.4845678335     2.1332739543     -0.5493023565
C     -3.2738427844     3.1869085043     1.7979253932
C     -2.1609480001     3.0419844567     2.6981798185
C     -0.8862723968     3.5925335425     2.3986723525
C     0.1795606133     3.0208024455     3.1081887818
C     -0.6334218551     -4.2502111731     1.7581690188
C     -0.8578822824     -3.1461719369     2.6335339868
C     -2.2613295038     -1.1001913728     3.0217696419
C     0.2060485866     -1.0686085637     3.5987293037
C     -1.0937995635     -0.42243759     3.5759646947
C     -1.1437613733     1.019119287     3.7252699794
C     -2.2777143888     1.7516693928     3.3121907121
C     0.0514547269     1.765465037     3.7780797863
C     -1.3771502781     2.3284386623     -3.3568050426
C     -2.6072960013     2.3554106707     -2.67519645
C     -2.7447459373     3.3826241453     -1.7041423766
C     -1.5792323992     4.0629421605     -1.1935859119
C     0.890519986     3.9883944263     -0.9291198986
C     -0.2942169237     3.9000432846     -1.7675965047
C     -0.2637991289     3.1496404986     -2.9672294143
C     3.2460862778     3.3047513885     -0.6098135075
C     2.1568570813     3.5055644921     -1.4828932509
C     -0.6292751072     4.1745816644     1.0754515631
C     -1.7360108086     4.2760988611     0.2135826684
C     1.5280291249     3.1403430633     2.6478995146
C     1.8071427989     3.7011773194     1.3707003153
C     0.7161390449     4.1075411674     0.5010068241
C     3.0521999644     3.3367222264     0.8108859001
C     -3.3583308749     1.1108796961     -2.5528645049
C     -4.3493865769     1.0655962332     -1.5295295914
C     -0.8473348728     1.1139862139     -3.8729520394
C     -1.4582035927     -0.1254203466     -3.6419185211
C     -2.7781540452     -0.1408437465     -3.0196503556
C     -3.2754005946     -1.394101616     -2.486146283
C     -2.5021890375     -2.564726158     -2.6755063166
C     0.5863253602     1.2369015682     -3.9314612946
C     2.7598598954     0.4114995363     -3.3900275557
C     1.4421885938     0.1244581665     -3.7809158955
C     0.8751187594     -1.1780157144     -3.5140748399
C     -0.5775091378     -1.2964439833     -3.5853217377
C     -1.1435584133     -2.4932532672     -3.1689495347
C     3.1402538829     1.7194194734     -2.9222080974
C     2.1586475459     2.7258771742     -2.7224069112
C     0.9376451274     2.5084007035     -3.3947470003
C     4.2320580064     1.5479809656     -2.0124371877
C     4.2964258769     2.3506665002     -0.8831645798
C     -4.195086446     -1.3884531705     -1.356407139
C     -4.6656616475     -0.1527705639     -0.8778363992
C     -2.5713715293     -3.6750721985     -1.7771987667
C     -3.3536548016     -3.5939186757     -0.6197218945
C     -4.1369427484     -2.4360724813     -0.3985735467
C     -1.2537303056     -4.2797336149     -1.7126817708
C     -2.7787637263     -3.9841256126     0.6557700819
C     -1.5502916702     -4.5823235421     0.7036855874
C     -0.7765835919     -4.7898566653     -0.5232508901
C     -0.3590429079     -3.5225909265     -2.5512543497
C     1.0006913812     -3.3162544809     -2.2283640644
C     1.6596719066     -2.1544054025     -2.794651667
C     3.5594829116     -0.5745313061     -2.7161155552
C     3.0009460831     -1.8079171651     -2.3174994063
C     3.531750133     -2.4325506132     -1.1031701628
C     2.7465598627     -3.4463001746     -0.4123156333
C     1.5265456827     -3.9583712028     -1.0232451012
C     0.6113554803     -4.6635177748     -0.1991454896
C     2.8834089369     -3.5554338167     0.9953859745
C     4.9615055693     -0.4090949995     -0.7280598069
C     4.5331663324     0.1346558191     -1.9242420024
C     4.4434485523     -1.711745235     1.0988000302
C     4.4979410389     -1.7120943091     -0.346920114
C     3.6055288426     -2.5770263657     1.7459338935
C     4.701164672     1.764837113     0.3813647358
C     4.6006445848     -0.3716263274     1.5833110078
C     5.0473143318     0.4267609711     0.459165817
C     2.2711669686     2.0313439407     3.1473415897
C     2.7680529262     -2.1117400656     2.8246831608
C     2.722047083     -0.7600661057     3.1681445023
C     3.7218511216     0.1449325851     2.5678628341
C     3.4374851924     1.568390413     2.5067353082
C     3.9133627583     2.3546993134     1.4255220647
C     0.6731643676     -4.5114902602     1.240218168
C     1.7602290165     -3.9168533121     1.8114762477
C     1.5915044843     -2.940577682     2.848269502
C     0.3039011818     -2.4435634699     3.1670564581
C     1.4376763464     -0.2616989618     3.6616290836
C     1.3262192411     1.1310439357     3.758722127


