96

 C     2.8445013152     -2.9946361633     -1.8146984078
C     3.9955882535     -2.5715322485     -1.1150078477
C     4.6529757867     -1.3392840155     -1.4082790359
C     2.2763398155     -2.0945258878     -2.8244133947
C     2.9542663406     -0.9044770091     -3.1020459711
C     4.1671343217     -0.5340269451     -2.4335613547
C     -1.2683705368     -3.250142378     -2.6003204878
C     0.1383972982     -3.2561843749     -2.7005037465
C     0.8521603884     -2.1312745575     -3.1427853667
C     -2.0330592276     -2.1075424486     -2.906932664
C     -1.3356697371     -0.9197185565     -3.3663501754
C     0.100070191     -0.9296183538     -3.4727234389
C     0.8230897431     0.3412874212     -3.522437917
C     2.2227476745     0.3082879623     -3.4085439181
C     -3.3899810301     0.3802432913     -2.9304539867
C     -2.0367836297     0.3628888315     -3.3514416161
C     -3.9874507621     -0.7657849237     -2.2809045811
C     -3.3369665344     -2.0029177642     -2.2593004035
C     -3.6678886729     -2.8614290162     -1.1656235831
C     5.1038115894     0.6553468528     -0.0362381712
C     4.6849487348     1.4917791663     -1.1504337317
C     5.0843445975     -0.7257225691     -0.1561460843
C     4.1767969342     0.9033575371     -2.2947682748
C     2.1116272337     4.0821384194     -0.4876251049
C     4.0466826013     2.6602631863     -0.6169407656
C     2.9280062171     3.2659846882     -1.2809983896
C     2.9670758555     1.4198258163     -2.9055112995
C     0.9117931764     2.7112687936     -2.7247202153
C     2.3218294768     2.5739539233     -2.4343836023
C     -1.2140104725     3.7592945665     -2.0681205046
C     0.1846848174     3.7459775889     -2.0199324533
C     0.7619914295     4.3586543096     -0.8761042989
C     -1.9470859658     2.7715228645     -2.8196772862
C     0.1634217382     1.6031236089     -3.2961831267
C     -1.2881206217     1.616821665     -3.3032624685
C     3.0822445162     1.1382361297     3.0193405949
C     4.0629700285     0.4925406318     2.2062799314
C     4.6483263278     1.2708982146     1.169387561
C     4.0825453205     2.5637164819     0.8072921702
C     2.1688989771     4.0492347038     0.9507992386
C     3.0872530558     3.1863548479     1.6040257903
C     2.6296420078     2.4894730496     2.7474749515
C     3.9834054203     -0.9548716433     2.0698788349
C     4.597145059     -1.5352518833     0.9216950327
C     4.0719053928     -2.7444238339     0.3311470384
C     2.8734749143     -1.6814096964     2.7018226719
C     2.5433883004     -2.9665052609     2.2129088859
C     3.1261404759     -3.4713721296     0.9937076972
C     2.0019242205     0.4255310684     3.5817279461
C     1.8190563248     -0.9693336402     3.3902715112
C     -0.6318988052     -0.5550477681     3.68586369
C     0.4714606081     -1.4863175637     3.4695004531
C     0.1705062657     -2.786525887     2.9011895592
C     1.2249360912     -3.4907087876     2.2904903644
C     -1.9296677538     -1.0179075676     3.4984553766
C     0.8306489854     4.2172183279     1.4270325241
C     0.3255701308     3.4185106395     2.4885108362
C     1.2704466625     2.6066619592     3.166970772
C     0.881077671     1.3345329112     3.6907258365
C     -1.4650778184     1.8055249529     3.1465586474
C     -0.4293049933     0.8939036072     3.6521320809
C     0.6772975747     -4.1320077493     -1.6621570986
C     1.9620827451     -3.9403445698     -1.1428518741
C     2.1163124028     -4.1824165655     0.2572313384
C     0.9821006494     -4.3074608474     1.1035821523
C     -0.3110254439     -4.4940434256     0.5837657847
C     -0.411352444     -4.5437725172     -0.840406292
C     -2.7421885563     -3.8821287559     -0.7417376767
C     -1.6193642894     -4.1164136604     -1.485677995
C     -2.2200367638     -2.3253615547     2.9658476308
C     -1.1887760711     -3.1695824323     2.5363376973
C     -1.4438509987     -4.0262068552     1.3692314345
C     -2.6836954875     -3.8944210382     0.7079913997
C     -3.9483439817     -0.8620426174     2.3636087615
C     -3.4807528437     -2.2280888781     2.286922032
C     -3.6929418802     -2.9727633976     1.1457605401
C     -4.5958541725     1.1496499963     1.2165553941
C     -4.6653903316     -0.2602656704     1.2872013811
C     -1.9776121692     3.6158692044     1.4888355471
C     -1.0806623327     3.0270918071     2.4907409351
C     -3.2612260664     3.071868488     1.3230962444
C     -3.6713306936     1.8999813547     2.0339645737
C     -2.7802959635     1.2561563831     2.9196717733
C     -3.0062790533     -0.1277322463     3.1352983512
C     -3.2930961602     3.5294265314     -1.082264072
C     -2.0117706531     4.156136805     -0.9398585741
C     -1.3971617231     4.2994794886     0.3300136329
C     -0.011837383     4.533713452     0.3057394127
C     -3.9496868803     3.0649743473     0.0398179761
C     -4.8005174925     1.1303444935     -1.2233490881
C     -3.9915368441     1.5469072542     -2.351452561
C     -3.2739479355     2.7246281835     -2.2928437693
C     -4.7384182551     1.8527520973     -0.0348131427
C     -4.325090456     -2.3525184998     -0.009359405
C     -4.8170458959     -1.0223579881     0.0419521223
C     -4.7977998752     -0.3086857623     -1.1864808894


