96

 C     -2.277873491     3.9239068787     -0.7421540483
C     -1.1831998194     4.0143353152     -1.6191806998
C     -3.7690803662     2.7437373325     1.3548537204
C     -2.7026818787     3.5219439017     1.662815874
C     -2.0266261305     4.2685625964     0.6293564462
C     -3.9766322259     1.4976113702     2.0576395588
C     -0.7150274737     4.5140922083     1.0919673047
C     0.3625958341     4.6812924674     0.19396465
C     0.1053883872     4.4677847392     -1.1938489488
C     1.6568717567     4.3729359016     0.677175768
C     -0.5249463588     3.7315539569     2.31974769
C     0.7608087278     1.8423492587     3.240474126
C     0.7188270423     3.1662165595     2.6566107752
C     1.844196989     3.6564762125     1.9416852346
C     2.0233433196     -0.2291042042     3.5201372926
C     2.0339436351     1.1427145101     3.2101593812
C     -3.8445640415     -1.2900891055     2.1634756595
C     -2.8482579527     -0.5433706721     2.8431949261
C     -2.933791189     0.9147057188     2.8226162867
C     -1.7467961083     1.7273930988     3.1018469176
C     -1.7338901524     3.067920897     2.6265219785
C     -1.5938810635     -1.1911537737     3.1395828651
C     -0.456044354     -0.346184849     3.5423545332
C     -0.488412226     1.1057991877     3.4189111833
C     0.7886891527     -0.9503500462     3.6876925723
C     3.6301723326     3.2039211234     0.5763984358
C     2.6870122891     3.9663540539     -0.2012895574
C     2.3911709347     3.5695246472     -1.5526861816
C     1.0956088639     3.8326857291     -2.0150793729
C     4.4190064221     2.2766564921     -0.029102474
C     3.1788508853     1.6430583437     2.4664948557
C     3.0474881279     2.9221011795     1.8678532085
C     4.8068845539     1.0811851628     0.6802510171
C     4.1574403566     0.7101065992     1.8957921486
C     4.2516204928     1.9652461172     -1.4465688381
C     3.1210369731     2.4496746116     -2.1437496263
C     2.412267256     1.5205873951     -3.0299281064
C     0.9840462752     1.6784222338     -3.2792115584
C     0.4056337717     2.8994307179     -2.8898516376
C     -0.9817692615     3.0258303141     -2.6667008362
C     -1.3170597876     0.6877115794     -3.307539566
C     -1.8661459652     1.9550063297     -2.859313315
C     4.7456876978     0.6421745565     -1.6212921358
C     4.1399053878     -0.2003087984     -2.5438527147
C     2.9496986393     0.2403674842     -3.2146249398
C     -3.4898649696     -0.3467283324     -2.81599325
C     2.0888080887     -0.9076162176     -3.3879020143
C     0.6915438705     -0.7991543738     -3.4582839899
C     0.1047788709     0.5412413366     -3.4782115126
C     -2.1449240389     -0.5051233534     -3.2217868665
C     5.0106221786     -1.2416218031     -0.0496764883
C     5.1448071408     0.1099043438     -0.3137624254
C     3.0118665259     -1.1365048977     3.0544525143
C     4.0507704755     -0.7137725122     2.1827566621
C     4.5118707999     -1.6673439218     1.2224188247
C     -3.9712514527     0.9020078265     -2.2477477
C     -3.152498298     2.0342764159     -2.1791212013
C     -3.3370896361     2.9731712868     -1.0668907952
C     -4.9259372896     0.5818013478     -1.2178095761
C     -4.9523866731     1.3673433412     -0.0717261735
C     -4.2078719293     2.5813442091     -0.0234036818
C     -5.030195736     -0.8553105445     -1.1233373287
C     -4.8540004941     0.7179219691     1.2312562026
C     -4.830973528     -0.6549160291     1.3173993269
C     -5.023226141     -1.4681467558     0.1362930156
C     -3.6088968448     -2.6463460639     -2.011686659
C     -4.21553161     -1.4129578464     -2.1807849059
C     -1.5301703242     -1.8255791098     -3.099565452
C     -2.2944754251     -2.8658533944     -2.5256478181
C     -0.0866467008     -1.9619534079     -3.1127438378
C     -2.4594042771     -4.0374799111     -0.5259081174
C     -3.687161113     -3.3232218235     -0.7294320331
C     -4.2864194965     -2.6909240699     0.34267297
C     -0.4876498424     -4.4517492887     0.7460319893
C     -1.8371905218     -4.082547393     0.7495691186
C     2.7285847779     -2.0438603885     -2.7930742903
C     1.9790668856     -3.0712996362     -2.1979033174
C     0.5582440365     -3.0903925791     -2.4580767334
C     0.279603837     -4.5138274809     -0.4511633245
C     -0.2556505921     -3.9737280008     -1.6525024975
C     -1.6481227881     -3.8536571235     -1.6929013913
C     3.7273703167     -3.1597411416     -0.4012358082
C     4.4726279096     -2.1359823374     -1.0639900305
C     3.9986660389     -1.60962935     -2.257833976
C     1.6497069775     -4.3292098084     -0.0996205704
C     2.5370769722     -3.7019222487     -0.9843209037
C     2.3879043064     -2.4329595253     2.926274197
C     1.7339470961     -4.1341153369     1.332911467
C     2.7552949177     -3.3156311444     1.8767324484
C     3.803415711     -2.9129272228     1.0129975651
C     -3.5543412224     -2.5732970287     1.6059339871
C     -2.3171038388     -3.1908626247     1.8101343696
C     -1.3550747832     -2.5443934405     2.6953849674
C     0.3985554357     -4.09164341     1.8265424476
C     -0.0058682142     -3.0983034151     2.7582596463
C     1.0243983526     -2.3194031154     3.3299730982


