96

 C     1.8000351016     4.1754811899     0.3497405077
C     2.2875824136     3.5710312929     -0.8400899664
C     3.4981046264     2.7710336647     -0.7507278429
C     3.7580651303     1.7496025913     -1.7564682715
C     4.741721789     0.7619778066     -1.4681418715
C     4.6872480218     -0.5594302637     -2.0462635691
C     2.7063537383     1.4258698776     -2.7297558981
C     2.7325069021     0.1507865259     -3.3263508852
C     3.6980345089     -0.8531947881     -2.9644208669
C     0.4160429397     4.4815075534     0.5270791664
C     1.3198894455     3.3245793791     -1.9108035257
C     1.444979311     2.14973545     -2.7539381109
C     -0.419156885     4.4774084765     -0.5501897429
C     0.0451081509     3.9074045841     -1.7996517382
C     -0.0483626814     3.9213984445     1.7809519819
C     -1.3232902636     3.3397789042     1.8966474892
C     -1.4486726917     2.1715837785     2.7489274871
C     4.3377314703     -2.7348432256     -0.9455397998
C     3.3049196653     -3.03675715     -1.9129556245
C     5.0560211196     -1.5395010307     -1.0346698144
C     3.0215076271     -2.132916493     -2.9297575698
C     1.6653445301     -1.9230566652     -3.3387522441
C     -1.8180397028     -2.7523558215     -2.2760901877
C     -3.1062661009     -2.2273003729     -2.4299844642
C     -0.7294658509     -2.0773823965     -2.9428555378
C     0.5920994399     -2.6227976216     -2.7708245801
C     0.8735946022     -3.507802203     -1.6469698708
C     2.2036049757     -3.6735081775     -1.2330133427
C     0.2714193196     0.1038397729     -3.5931661899
C     1.5076828197     -0.5255513686     -3.6521708943
C     -3.4745602786     1.8518891915     -2.6445209842
C     -2.286151703     1.3343813123     -3.2184739923
C     -2.1990198456     -0.1114637824     -3.3623597934
C     -0.9031413849     -0.7350677381     -3.4282363574
C     -3.3007646253     -0.9152313903     -2.9926848576
C     0.2442321116     1.5194777019     -3.2780084675
C     -1.1060056366     3.3648616816     -2.4489034622
C     -1.0551884499     2.1300028504     -3.1208434715
C     4.976278383     -1.2755015688     1.4118275007
C     4.1461919315     -2.4547609454     1.4895810096
C     5.402879232     -0.8109964412     0.1626334258
C     3.8554910345     -3.1846382938     0.3448842416
C     2.5331195146     -3.7313116455     0.1725538723
C     -0.8786850705     -3.4945641701     1.6861577724
C     -2.2087365025     -3.663166332     1.2735064581
C     0.1606818847     -3.7374105903     0.7180515911
C     1.5263983165     -3.5586775125     1.1364465982
C     1.8131351723     -2.7348960868     2.3093660813
C     3.1014940127     -2.2089787428     2.4591550817
C     -1.5315037715     -3.5670213325     -1.0967756655
C     -0.1658296362     -3.7428200946     -0.6769955733
C     -2.5382664899     -3.7318664959     -0.1315656253
C     4.9339482531     1.5025384862     0.8493389787
C     4.5230374033     1.0200337948     2.1628808495
C     5.2930975511     0.6076839787     -0.1378843164
C     4.4789323583     -0.3398019428     2.4008882492
C     2.2555481429     3.7129339699     1.6281495944
C     3.3929873587     2.9739597533     1.7154717315
C     3.47079973     1.8716650586     2.6418378518
C     3.296318054     -0.8926078444     3.0115947716
C     0.8987384192     -0.7084461235     3.4457271091
C     2.1947730118     -0.0857030851     3.3749840012
C     2.2822631565     1.3589531234     3.219817274
C     -1.5120386597     -0.4965910441     3.6680124251
C     -0.2756172238     0.1320117479     3.604099856
C     -0.2480802943     1.5451379745     3.2779025238
C     1.0514958012     2.1540932742     3.1159807373
C     1.1026188817     3.3836550759     2.4344223373
C     -0.5969712525     -2.6008793029     2.8030686389
C     0.7247300235     -2.0544675917     2.9708393921
C     -1.6700445543     -1.8964609498     3.3655119651
C     4.1242676878     2.6374864121     0.5191934251
C     -4.3426316585     -2.726247378     0.9787087006
C     -3.3098945058     -3.0208518176     1.9484532728
C     -3.0262601901     -2.1091713135     2.9581678545
C     -5.0606276359     -1.5300682128     1.0585010851
C     -4.9808188631     -1.2852021699     -1.389981169
C     -4.1510264359     -2.4652397332     -1.4585237536
C     -3.8605040597     -3.1862277313     -0.3081609901
C     -5.4073058196     -0.8108503827     -0.1444535692
C     -4.9378028887     1.4971376288     -0.8492008358
C     -4.527007062     1.0042862889     -2.1589329996
C     -4.4832392961     -0.3573777856     -2.3863157622
C     -5.2971730728     0.6101081532     0.1449780554
C     -2.258853034     3.7007143685     -1.6452294403
C     -4.1278398648     2.6344268687     -0.5279225615
C     -3.3964754707     2.9613663686     -1.726787176
C     -3.7024727     -0.8290508491     2.9828386664
C     -2.7366959488     0.1774849723     3.336924282
C     -2.7102286843     1.4478666986     2.7303946067
C     -4.691613797     -0.5422191664     2.062413781
C     -4.7457611241     0.7746474144     1.4739928921
C     -3.7618595209     1.7642484048     1.7546045975
C     -3.5016441172     2.7777305199     0.7409212402
C     -2.2909241779     3.5781021093     0.8240428677
C     -1.8032255918     4.1731206896     -0.3704706454


