96

 C     0.0664354588     1.5520345523     -4.0087591639
C     -1.0897309505     0.7784708642     -4.0649473976
C     -2.2764845716     1.439631489     -3.638051715
C     -3.4232478078     0.6927545146     -3.1981398761
C     -3.350939148     -0.675558063     -3.1714610455
C     1.3631299437     0.94937198     -3.9895012949
C     1.5459522492     -0.4307987168     -3.7532927115
C     0.3426837163     -1.2660424263     -3.6425186393
C     -0.9501873044     -0.6673515083     -3.9219804351
C     -2.1181390633     -1.361157984     -3.5307719426
C     1.6822175749     -2.925230471     -2.3213398126
C     0.4068580649     -2.502213314     -2.8915421915
C     -0.8241515454     -3.1040515266     -2.379566318
C     -2.0508792406     -2.5309138052     -2.7483258587
C     1.638244288     -3.8701999664     -1.2752872437
C     2.8181850132     -0.8468276649     -3.1686617188
C     3.789476415     0.1523754879     -2.8588523957
C     2.8914081832     -2.108134516     -2.4578756787
C     -4.727639669     -1.4257975001     0.1824268584
C     -4.6969975856     -0.7449985714     -1.0617944838
C     -4.0097545309     -1.4177644261     -2.1174120076
C     -3.2348656719     -2.5852114529     -1.8856274707
C     -3.1897689039     -3.2120507384     -0.6257408109
C     -4.0154671665     -2.6404199891     0.387740283
C     -2.4346314635     -3.3318176665     2.1045986899
C     -3.5635637561     -2.648109979     1.7661460129
C     0.4077565406     -4.3237404854     -0.6827107289
C     -0.8378631315     -3.9477784091     -1.1854419742
C     -1.9818051892     -3.9380911572     -0.2643613385
C     -1.7209701377     -4.1081821804     1.1168365445
C     -4.7194997968     0.7260811966     -1.0639976473
C     -4.0888887501     1.4154399837     -2.1314187043
C     -4.6811594553     -0.6817808861     1.4383501973
C     -4.6947589286     0.6866816866     1.4351749234
C     -4.7407844848     1.4189312184     0.1743909446
C     -3.8400369847     -1.3809520848     2.3734671056
C     -3.5847934685     2.6555424315     1.750414831
C     -4.0129263881     2.6293322978     0.369817525
C     -3.1774837153     3.1862991435     -0.6435446027
C     -3.3232218834     2.5991255307     -1.9140452281
C     -2.4559769861     3.3363084076     2.096334842
C     -0.3281992964     3.4184901984     2.9018207627
C     -1.6034790749     2.8151849309     3.1233999833
C     0.791049481     2.8201862302     3.3880053759
C     -1.4757169434     -2.7447614361     3.0144063696
C     -1.6043342567     -1.4142077471     3.4543910202
C     -2.8636031837     -0.7119497958     3.1626350251
C     -2.9080898867     0.7365838373     3.1850941406
C     -3.8793043356     1.3979339138     2.3766425123
C     -0.3765900022     -0.6880082313     3.7411141517
C     -0.4849458294     0.7522601137     3.9114465276
C     -1.7199504904     1.4712348261     3.5736016752
C     0.712512646     1.4852814875     3.9438215074
C     -1.6279464452     3.9852229714     1.0864297675
C     -1.8923773444     3.8170130039     -0.2800741905
C     -0.7467847124     3.7806068193     -1.1797547238
C     -0.9781021289     3.2222467362     -2.5045224616
C     -2.214830077     2.6182105782     -2.8439863212
C     0.1212975539     2.7748963154     -3.252712912
C     -0.2995947159     4.0422841506     1.5939464648
C     2.0904722609     3.4784675534     1.370949692
C     0.8402091971     3.9479343044     0.7635710047
C     0.615445293     3.8501734221     -0.6665299467
C     4.1694913138     2.1633232948     1.1087607407
C     3.1965565454     3.0343197284     0.5359391954
C     3.0345432005     3.0343435372     -0.9084252626
C     1.7449967298     3.4275872911     -1.5005526676
C     1.4590752241     2.9591204106     -2.7969670545
C     2.0323134134     2.9805989827     2.6997601288
C     2.2458255745     1.9247587869     -3.4150838077
C     3.428410346     1.5439686769     -2.8652755948
C     3.897558827     2.1892615897     -1.6644976575
C     4.9925009095     -0.0343788962     1.0335897393
C     4.9327661133     1.2396096165     0.3231704239
C     4.8033577332     1.2575489331     -1.0515086493
C     4.9482720306     -1.2198275636     0.3292162553
C     2.8364444683     1.8699362982     3.111667804
C     4.238781164     0.0936902377     2.2499604843
C     3.9004621413     1.488434996     2.3559098234
C     -0.2008550764     -3.3272010292     2.7241201689
C     2.1620686567     -3.0352545809     2.0910323387
C     1.005252142     -2.6287139867     2.9002901839
C     0.9270060103     -1.2995782323     3.4862739636
C     4.1707224138     -2.3070249454     0.8411950896
C     3.3250556199     -2.1687390864     1.9814819684
C     3.3307971447     -0.9077716051     2.6970757395
C     2.1327099595     -0.4870871577     3.4467471591
C     1.9902816118     0.8797678335     3.7419600245
C     3.7144473309     -3.042313177     -0.3134815905
C     2.6138333891     -3.8349695499     -0.2151612255
C     1.9418064949     -3.971895048     1.0486352682
C     0.6369595387     -4.452788054     0.7362233608
C     -0.3930833406     -4.2336672561     1.6104708008
C     4.7389179414     0.0016309789     -1.792989805
C     4.8132534075     -1.2007212336     -1.1244175924
C     3.9390135435     -2.2742392681     -1.5072934998


