96

 C     -3.0233017606     3.0220199291     1.5630447331
C     -2.36700904     2.4069486116     2.6465933227
C     -0.9690432663     2.7395946373     2.8675940734
C     -0.1821914412     1.8357331814     3.714687562
C     -0.7323467208     0.610902057     4.132827296
C     1.2288800695     1.8807900249     3.675851497
C     -2.3280351459     3.8388688129     0.6388821221
C     -0.9561334794     4.1209690295     0.7791060523
C     -0.2679813594     3.6189742401     1.9564326614
C     1.8990426126     4.0334803947     0.7805306178
C     1.2067064398     3.6460315916     1.9593234277
C     1.9194520133     2.8130547329     2.8587016161
C     1.1823867362     4.2957662118     -0.4318055969
C     -0.211412734     4.3957581443     -0.4552912528
C     -0.8183039733     4.1542789796     -1.7187948025
C     2.0334285996     0.6905343803     3.7766142892
C     1.4324572497     -0.590955573     3.8378330238
C     0.0566551757     -0.594894959     4.1485200902
C     -0.790153854     -1.6696042698     3.7709968113
C     1.1194585605     -2.7778344044     2.6948409493
C     -0.3127317448     -2.7437326873     3.0002091312
C     3.2956000681     -1.4943738477     2.450426133
C     2.0041969996     -1.7052633028     3.1144820034
C     3.6979977716     -2.4115023393     1.4507819459
C     2.7995471255     -3.4083368801     0.9800175212
C     1.5465342113     -3.6224083998     1.6019205584
C     0.5836816371     -4.2740189929     0.8075140762
C     3.2446440157     0.9118966051     3.0658507888
C     4.7111297849     0.2089098464     1.2826726715
C     3.9010111688     -0.1541414866     2.4050763026
C     3.1495084628     3.4367287246     0.4145113834
C     3.8055583382     2.5208474772     1.2724434183
C     3.1951772436     2.2355827943     2.5157662725
C     4.5871401196     1.5004237299     0.6731387786
C     -0.8094642696     -4.2428089339     1.1181674443
C     -1.3000333253     -3.4436678495     2.171446261
C     -2.6809060326     -2.9473300051     2.0555094332
C     -1.510436176     -4.371814265     -0.1271101187
C     -2.7623144109     -3.850570889     -0.2611759375
C     -3.3960809278     -3.2179493924     0.8619059531
C     -2.3581784476     -1.7780680136     -3.2621609309
C     -3.140330718     -3.1762590987     -1.4855299198
C     -2.1628251916     -2.940736752     -2.4927076072
C     2.984013695     -3.5810806891     -0.4490410591
C     1.870570224     -3.832887986     -1.2810974892
C     0.7355634327     -4.3542889055     -0.6330973401
C     -0.5448320953     -4.2708135785     -1.2131714185
C     0.3214835136     -2.7572411529     -2.9484385103
C     -0.8046819209     -3.4566360184     -2.3510377209
C     -3.085550169     -1.7623106976     2.7979763275
C     -2.1417776317     -1.1645800398     3.6505167457
C     -4.3322227996     -2.2769256749     0.2982678308
C     -4.6796397477     -1.144857968     0.9876224691
C     -4.0953305333     -0.8959621339     2.2850390309
C     -4.1092129633     -2.1914981412     -1.1368156642
C     -4.192981761     -0.9355549261     -1.8156561749
C     -3.3537127657     -0.8067744097     -2.9418092722
C     -4.5666391985     1.1285168783     1.2567547234
C     -4.0114106229     0.5221417781     2.4484936638
C     -2.9294299341     1.1355441982     3.1313549218
C     -2.0816829744     0.2487368019     3.8287423212
C     -4.0944425018     2.3448993607     0.8357485938
C     -4.5771926824     0.273389988     -1.0779212989
C     -4.8810613536     0.1134518404     0.2976333057
C     -3.9566534019     2.6079699797     -0.5603395521
C     -4.104010044     1.5802478514     -1.531122304
C     -2.8775079754     0.4887419007     -3.3872308586
C     -3.2484566425     1.673291731     -2.7192974263
C     -2.3338958535     2.7568305874     -2.8544664275
C     -2.1910810495     3.7440946009     -1.8131622297
C     -2.9387822551     3.6274419668     -0.672578477
C     -1.5771194229     0.3130888857     -3.946172769
C     2.4208480849     -0.8621552139     -3.4208952852
C     1.1216930464     -0.4747631763     -3.7533435722
C     0.8090373898     0.9416206769     -3.7422246215
C     -0.5821620255     1.3192117718     -3.8730336807
C     -1.0299406472     2.577835918     -3.4090696505
C     4.0218953515     -2.6987170689     -0.854922839
C     3.9104379154     -2.018194315     -2.0675903328
C     2.7029382176     -2.1476368744     -2.8427359941
C     1.6645885682     -3.0429107304     -2.4873219158
C     0.0813564624     -1.5001080972     -3.6577073926
C     -1.2405095737     -1.0803530754     -3.8297397777
C     4.916123979     -0.0224399561     -1.0491615508
C     4.9811294305     -0.7293727172     0.2280293638
C     4.5293673551     -2.0206773014     0.3282000941
C     4.3540066005     -0.644626545     -2.1562270753
C     3.1401983878     3.2229082421     -1.0111810166
C     3.7600302732     2.0978407308     -1.6068337452
C     4.6349153485     1.3448725101     -0.7745015669
C     -0.1086101803     3.4660421008     -2.7498704118
C     1.7588051495     1.8811640088     -3.1647145396
C     1.2571507889     3.1358753756     -2.6283339484
C     1.9298499489     3.7428894536     -1.5322582596
C     3.4051138944     0.0772777114     -2.9640976942
C     3.0607532844     1.4222787491     -2.7110825842


