96

 C     -0.4622351162     -3.4068734574     -2.7036936853
C     0.7441458691     -2.7755659422     -3.0168234579
C     1.9534997583     -3.1999160304     -2.2999900652
C     3.136158463     -2.3478007099     -2.3019571727
C     4.0458157375     -2.381266348     -1.1872772916
C     3.0742778128     -1.1507474671     -3.0287263196
C     -1.7338104248     -2.7673015859     -2.9012610606
C     -1.8555184588     -1.4233538305     -3.3100774489
C     -0.6235056271     -0.7112787805     -3.6415358791
C     0.6395410149     -1.4335131527     -3.5820781362
C     1.8338360365     -0.6941717941     -3.6381726744
C     -1.8510616951     1.4531190141     -3.3019487738
C     -0.6212588598     0.7391155128     -3.6374365663
C     0.6440205045     1.4570869944     -3.5739115048
C     1.8360192654     0.7143763383     -3.6341941975
C     -1.7251934183     2.7943530814     -2.8855472441
C     -3.0790726704     -0.7076472804     -2.945246154
C     -4.049714007     -1.3742861676     -2.1399182505
C     -3.076831469     0.7391544327     -2.9411577378
C     3.8319462456     0.0042122173     -2.6472754385
C     4.6334158644     -0.000365379     -1.4663535033
C     4.7242569975     -1.2240497114     -0.7454748063
C     4.7280444202     1.2189411552     -0.7385767319
C     3.0778668423     1.1636518952     -3.0221906973
C     3.1434500766     2.3563842594     -2.2886737924
C     4.0531966102     2.3807329327     -1.1738304011
C     2.5990997469     3.9135888272     0.0235167475
C     3.7077268558     3.1283940839     0.0174061504
C     -0.4516443018     3.4288580637     -2.6843829124
C     0.7527767076     2.7955950258     -3.0010875276
C     1.9634373158     3.212138036     -2.2818806933
C     1.8058072211     4.0818601324     -1.1756751329
C     4.7398240778     1.2134790394     0.7346160512
C     4.6825026808     -0.008693699     1.4564989122
C     4.7360418161     -1.2269406319     0.7277251726
C     3.9483594807     -0.0109829732     2.6701494166
C     3.1965068477     1.1435425606     3.0774825786
C     3.1447162259     2.3144002876     2.3093423655
C     4.0465634007     2.3610637617     1.1888691908
C     3.1929279623     -1.1654515444     3.0709642497
C     3.1375148895     -2.3317875103     2.2962236496
C     4.0392214281     -2.3749184268     1.1754974866
C     3.6980164774     -3.1345650277     -0.000278111
C     2.5869613831     -3.9163435123     0.0014074787
C     2.0293267015     -0.721992544     3.7888207927
C     -0.3189782902     -0.7296469135     4.127994595
C     0.8188545002     -1.4609590817     3.7749261397
C     0.6731849269     -2.6384091909     2.9349176685
C     1.8730987008     -3.0976785282     2.2469968906
C     1.6923148174     -3.9601079768     1.1566954589
C     1.7045838344     3.9536051605     1.1790425395
C     1.8826821587     3.0844750763     2.2644517914
C     0.6813443862     2.6250512     2.9497817051
C     0.8233568662     1.442429899     3.7831240465
C     2.031531699     0.6996458166     3.7928347114
C     -0.3167411484     0.7126654928     4.1320671438
C     -0.585839102     -4.2546455545     -1.5432611327
C     1.7931630942     -4.0753787798     -1.1987105813
C     0.506873346     -4.4859375993     -0.7567509703
C     -1.6274883213     -1.1742659581     3.7785452312
C     -1.834419065     -2.2557506612     2.9002651215
C     -0.6551144401     -3.0077989241     2.461570104
C     -0.7900224161     -3.8356847747     1.2786324048
C     0.3995701966     -4.3134713013     0.6824367162
C     -1.8629673335     -4.0481896941     -0.9384306142
C     -2.0008774216     -3.7852423225     0.4494878687
C     -2.6253253437     -3.3126403687     -1.905823581
C     -3.7296895147     -2.6229463207     -1.5107688375
C     -4.0867366546     -2.579808006     -0.111861299
C     -3.9973816058     -1.1817396461     2.2970212081
C     -3.1552370143     -3.0072111857     0.8781988078
C     -3.0843109566     -2.2635047962     2.1249979273
C     -4.8605752507     0.7366323707     1.2495675831
C     -4.8628360358     -0.7232761454     1.2454423922
C     -4.8980062168     -1.4102345239     0.0482648845
C     -4.8936056896     1.4304472059     0.0562900668
C     -2.4609765952     -0.0040953094     3.7482736513
C     -3.9937106355     1.1864705333     2.3037074329
C     -3.6119708499     -0.0002758968     3.0257243356
C     0.412942758     4.3136443647     0.7067995698
C     -1.9891329256     3.7941771125     0.470898575
C     -0.7781318046     3.8361866123     1.3002984967
C     -0.6458011989     3.0012226399     2.4785422838
C     -4.0787140146     2.5983885738     -0.0972320436
C     -3.1459012788     3.0173091907     0.8952151854
C     -3.0772902089     2.2663566522     2.1377884247
C     -1.8274340613     2.2503626591     2.9129912519
C     -1.623864117     1.1633006852     3.7851481065
C     -3.7215224564     2.648322004     -1.4958751019
C     -2.6150254459     3.3368177544     -1.8870367128
C     -1.8503979141     4.0645291208     -0.915513594
C     -0.5726299801     4.2704449265     -1.5191809055
C     0.5207902456     4.4938995901     -0.7313892171
C     -4.8939622594     -0.6739807932     -1.2127455969
C     -4.8918312336     0.7013181522     -1.2088596575
C     -4.0454094186     1.4042333145     -2.132067349


