96

 C     -4.1767026411     2.0506821723     1.7017967056
C     -4.616115768     0.7436104175     1.7694624603
C     -3.8924509611     -0.1917148991     2.5713661256
C     -2.0631352417     -2.2677263501     2.9973574688
C     -1.6528012264     -0.9543218499     3.3334679555
C     -2.6229803806     0.1227038242     3.1396355616
C     0.2225660272     0.7117127937     3.4251495327
C     -0.7270993774     1.7810604537     3.187774069
C     -2.1526348779     1.4889202228     3.0486747231
C     -2.989648572     2.4370637566     2.403589563
C     1.1277016641     3.291047577     2.6252993558
C     -0.2532721464     3.074990499     2.7119693248
C     0.2455221067     -3.055649434     2.7332353307
C     -1.1353445036     -3.2722995436     2.6463525888
C     2.9822781699     -2.41983354     2.4238527524
C     2.1444785098     -1.4673050381     3.0614145906
C     0.7187722445     -1.7584934553     3.2007648157
C     -0.2311775496     -0.6875529218     3.429658725
C     2.6147183349     -0.1004967725     3.1436081121
C     1.6443058615     0.9778243506     3.3288812097
C     2.0550568435     2.2889029234     2.9843010007
C     -4.9892723125     0.7090202777     -0.653106244
C     -4.5218665826     2.0763897475     -0.7240548474
C     -5.0857269776     0.0615108205     0.5702260885
C     -4.1927077459     2.7577371514     0.4337911374
C     -3.0936600184     3.672366576     0.4169157128
C     -2.331019689     3.9006320315     -0.7628166814
C     -1.0660150979     4.4770618818     -0.5541409536
C     -1.0851192962     3.8999199573     1.8422674885
C     -2.4202718654     3.5492485074     1.6788827065
C     -0.4964123808     4.5925164188     0.7428374271
C     -3.1312501645     -1.8222253035     -2.6173796797
C     -4.1158642815     -1.3826618633     -1.693802061
C     -4.4605187124     -0.0103683973     -1.7822221105
C     -3.6566398186     0.9168343554     -2.544007925
C     -1.365860089     1.3500848562     -3.375167566
C     -2.521584501     0.4906114563     -3.2603963677
C     -2.363838822     -0.9117681821     -3.3847547294
C     1.0699775311     1.4839944925     -3.6169011759
C     -0.0824424258     0.7212467319     -3.7200673006
C     -2.54221124     3.0354665306     -1.9275969965
C     -3.6647319181     2.1924415778     -1.8921040243
C     0.0160093091     4.2898863405     -1.4984575073
C     -0.1373474418     3.3637270276     -2.563086087
C     -1.3903163054     2.6493443164     -2.7506824459
C     1.063106206     2.7944019807     -3.0391839405
C     -4.2387239999     -2.0881450593     -0.4152963852
C     -4.7273276105     -1.3325785528     0.6803698223
C     -2.3241815543     -2.9974250788     -2.371592304
C     -2.4317768901     -3.7186917057     -1.1662503771
C     -3.3623440991     -3.2343239235     -0.1379392872
C     -1.264577536     -4.447470349     -0.7879953045
C     -1.0638084946     -2.8143951547     -3.0213112215
C     1.3892590565     -2.6673572581     -2.7308020173
C     0.1360585432     -3.3804464977     -2.5398616772
C     -0.0186057124     -4.2993048191     -1.4691138973
C     3.6626230949     -2.2045859768     -1.8725831352
C     2.5401431351     -3.0478381716     -1.9036860138
C     0.0825816612     -0.7459387969     -3.7149502958
C     -1.0699666756     -1.5079685086     -3.6079847358
C     2.3635725853     0.8893398698     -3.3880156143
C     2.5211598901     -0.5121561445     -3.2538786109
C     1.365573352     -1.3723986055     -3.3641863004
C     3.6553347589     -0.9334662665     -2.5332028269
C     -0.9319806105     -4.6267740915     0.6072625484
C     -1.7263348926     -4.0618258717     1.5647808158
C     -2.9935909547     -3.4718780793     1.2087757591
C     -3.2686612932     -2.5057906298     2.226034757
C     -4.1370542834     -1.4871735276     1.9863895774
C     0.4910680236     -4.5866018149     0.774824677
C     1.0784303323     -3.8865008991     1.8702124249
C     2.4137843309     -3.5369495037     1.7060688915
C     2.3275208673     -3.9050211627     -0.7332778081
C     1.0622601957     -4.4800158606     -0.5222155979
C     3.0887159915     -3.6686899919     0.4458007359
C     4.9856507619     -0.7127216042     -0.6421355285
C     4.518326757     -2.0805463467     -0.7043049792
C     4.1877471217     -2.7539625013     0.4577677514
C     5.0806101536     -0.0568628357     0.5768583252
C     3.130047865     1.8050260063     -2.6259455506
C     4.113527729     1.3717918815     -1.6981779556
C     4.4582838899     -0.0010727164     -1.7767902104
C     1.2611461751     4.4427105544     -0.8168425789
C     3.3581100759     3.2340457567     -0.155937314
C     2.4288052231     3.7113674713     -1.1886755644
C     2.3226836966     2.9818753757     -2.389187847
C     4.7220822607     1.3379453897     0.677027773
C     4.2348240782     2.0860007645     -0.4243765368
C     4.1302095843     1.5014645073     1.9812355364
C     3.2615282458     2.5216923833     2.2128457974
C     2.987708159     3.4808002981     1.1886689489
C     1.7200189455     4.0731635767     1.5390792226
C     0.9268412257     4.6315488568     0.5767489414
C     4.1701919837     -2.0382546797     1.7208894458
C     4.6095275187     -0.7307485144     1.7801547569
C     3.8848854624     0.2100343327     2.5747570785


