96

 C     0.5197802715     -4.3429803527     -1.0523209033
C     0.5329713298     -3.5967970425     -2.2491618718
C     -0.7224588319     -3.0086127614     -2.6818146767
C     -0.651561392     -1.9018940709     -3.6413499017
C     0.5958646285     -1.3456054823     -3.9845344171
C     -1.7539510051     -1.0357767718     -3.8011038269
C     -0.6397809737     -4.4354418062     -0.2448889884
C     -1.8615920621     -3.8495813918     -0.6093183003
C     -1.9251452662     -3.159251995     -1.8864728449
C     -4.0173043922     -2.0427167562     -1.0739632336
C     -3.0671296417     -2.2632135628     -2.1198499249
C     -2.9751965773     -1.2472201164     -3.090572735
C     -3.8512358174     -2.640943097     0.2289195449
C     -2.7942380976     -3.5154408564     0.4871735779
C     -2.3289160401     -3.5654416567     1.8470880002
C     -1.59292117     0.3707308799     -4.0022747311
C     -0.3120618317     0.968157094     -3.9942598064
C     0.7679431644     0.0723333284     -4.1276976329
C     2.0747299901     0.4011351568     -3.665745221
C     1.2266742934     2.5575020788     -2.8497723759
C     2.3337200939     1.5995944154     -2.9910535794
C     -1.2819499331     2.9331446192     -2.8118236578
C     -0.1006383816     2.2474748852     -3.3448692652
C     -1.0747410169     3.9121125933     -1.8171255312
C     0.2108392652     4.1824306273     -1.2994107068
C     1.3668174614     3.5746505922     -1.8324826445
C     2.5088412351     3.6093964533     -0.9998001966
C     -2.7356766246     1.0285507661     -3.4378999969
C     -3.5624408776     2.5932109803     -1.8134502711
C     -2.6072091612     2.3008228895     -2.845840675
C     -4.6708391872     -0.7940514795     -0.898747247
C     -4.4366884974     0.2881855455     -1.7949041026
C     -3.6249086371     0.029970388     -2.9242305691
C     -4.4216351678     1.6068101707     -1.2726111493
C     3.5955900418     2.6853911333     -1.170180039
C     3.493597252     1.6183313422     -2.0872215131
C     4.2100160943     0.3758437378     -1.7683673668
C     4.2440674315     2.5462805567     0.1079391106
C     4.8190394605     1.3402113383     0.4480705479
C     4.8605312572     0.280417917     -0.5095916247
C     3.4657525087     3.2851589562     1.08529798
C     4.5661382826     0.7591564542     1.7643983527
C     3.7426102004     1.4148839496     2.65527324
C     3.1955421248     2.7188250178     2.3277750833
C     0.0981961835     4.4517201191     0.1258057264
C     1.1516597375     4.1716349077     1.0066391191
C     2.4177216213     3.9624804532     0.3946228314
C     3.7928890244     -0.8754699012     -2.3927011201
C     2.7654418852     -0.8310462434     -3.3502323674
C     4.8252568551     -0.9568962531     0.2468737699
C     4.3928512977     -2.1170047591     -0.3320449027
C     3.9370169822     -2.1135795345     -1.7051185381
C     4.465943616     -0.6626544797     1.6166939006
C     2.8549487347     -3.7867081439     -0.5336620835
C     2.9707307367     -3.1581663483     -1.8312134271
C     1.8270255682     -3.0298442212     -2.667292654
C     1.8284500424     -1.8959064354     -3.5043795364
C     1.673736007     -4.3582832551     -0.1609084748
C     -0.1864717737     -4.4481214987     1.1503798144
C     1.223600917     -4.23813931     1.1935006305
C     -0.9784129651     -3.9506267319     2.1387096199
C     2.7362406741     0.6684208243     3.3601396739
C     2.5450655748     -0.7156298768     3.1732236425
C     3.4717083904     -1.4258108883     2.2894422255
C     3.068167559     -2.6931270076     1.6973851132
C     3.6185709695     -3.04943978     0.431907038
C     1.2289822999     -1.2621149649     3.4730524263
C     0.930153589     -2.6127092838     3.0378707211
C     1.8139988448     -3.2985980562     2.0933927537
C     -0.4158846375     -3.047918135     3.1167651805
C     1.6178339975     1.5518275604     3.5537826624
C     0.3225924715     1.0723025449     3.7363743619
C     0.1389895461     -0.3686166253     3.8375641563
C     -2.300856783     0.0660043798     3.7067288373
C     -1.2198281668     -0.8542879123     3.8645018024
C     -1.4741163932     -2.193213966     3.5191718959
C     -1.2501812692     4.2803985842     0.5083154364
C     -1.6176110795     3.6177517125     1.7003938274
C     -0.537928955     3.1442381169     2.5653210895
C     0.8260213584     3.5192561248     2.2673832118
C     1.8742686451     2.7959233032     2.8914492745
C     -2.0715654406     1.4365378038     3.445425439
C     -0.7690498098     1.9685978362     3.3855518607
C     -3.7384524248     2.9509404229     0.5248896955
C     -3.2086917985     3.470207962     -0.716994849
C     -2.0119400882     4.102719118     -0.7263138708
C     -3.1572172078     1.9424293794     2.6337768522
C     -2.9325892932     2.9764423581     1.7167806051
C     -4.8295576045     -0.5698544997     0.52821523
C     -4.0435385038     0.8526482389     2.3594295049
C     -4.6803892928     0.7309668776     1.0878350792
C     -4.5186809751     1.8260937818     0.1843120885
C     -2.6769317342     -2.5535561541     2.7746490595
C     -3.5252884822     -0.3048644738     3.0336208915
C     -3.6800872117     -1.5937356141     2.4754755289
C     -4.3463270423     -1.7196727235     1.217395337


