96

 C     4.7938947592     -1.0756860863     -0.0824214517
C     4.2187667363     -2.2328275001     -0.660477338
C     3.5783986793     -3.1497575825     0.2085003029
C     3.7282010934     -2.1316507376     -1.9865796938
C     3.6767881471     -0.8592740341     -2.6454499446
C     4.1378765036     0.3253727907     -2.0306597816
C     4.8517333665     0.1573900303     -0.7983587916
C     2.5767650177     -2.8887733583     -2.4033489087
C     1.902854882     -3.7664688527     -1.5291026734
C     2.5099037122     -3.9703488486     -0.2483031465
C     1.6851420724     -4.2266483759     0.899167623
C     0.3727561331     -4.5285019746     0.7395824214
C     1.8473980099     -2.1058177281     -3.346953181
C     -0.1905955269     -1.1023598646     -4.0593186512
C     0.4395509667     -2.216881913     -3.4896430825
C     -0.3196392695     -3.123823239     -2.6203080475
C     0.4407065861     -3.9238743821     -1.6748160708
C     -0.2587903796     -4.4534936721     -0.5731389116
C     3.6074742092     2.6231488904     -1.3390174527
C     3.4093623582     1.5828027121     -2.2734467759
C     2.1829162834     1.5889130945     -3.0767046556
C     1.8001333243     0.3537026306     -3.7259606464
C     2.5192045     -0.8444639192     -3.4813160254
C     0.4690207796     0.1752736333     -4.1502134186
C     -2.8659792275     -3.3993167473     1.6213026124
C     -0.5730736797     -4.1346821898     1.7406720356
C     -1.8414083071     -4.129968722     1.092814801
C     -3.8265654909     -2.768492025     0.7423516685
C     -4.1660340682     -1.6675337999     -1.3525459618
C     -3.594958391     -2.7549958036     -0.6630747586
C     -1.5822856587     -0.8652155291     -3.8702573101
C     -2.3691330641     -1.7395583139     -3.0821939825
C     -1.731972667     -2.8722926675     -2.4036020728
C     -2.4002386235     -3.4084622181     -1.2273923011
C     -1.6351190171     -4.2011210966     -0.354875403
C     -3.5597022896     -1.1735542608     -2.5702034161
C     -2.6259533091     -2.5609259248     2.7566352568
C     -1.3042810181     -2.3216658032     3.2276389867
C     -0.2389843837     -3.1705861835     2.7385169646
C     1.1458117866     -2.7283844253     2.8302488192
C     2.1067561196     -3.3898982474     2.0043902036
C     0.3805573185     -0.5060158379     3.6895848671
C     1.4677970366     -1.4019815412     3.3104519778
C     2.793812034     -0.8557750506     3.0306271849
C     2.9996556617     0.530212678     3.209787526
C     -3.6138450435     -1.5179360553     2.6772224967
C     -3.3312218768     -0.2837267604     3.2017833172
C     -2.0238868986     -0.0182471881     3.7397188903
C     -0.9793453871     -0.9846312677     3.7055268196
C     0.5985354473     0.9321228024     3.6600010288
C     1.895161895     1.4112313118     3.4593238405
C     -3.8431452057     0.913453752     2.5637104608
C     -4.449238109     1.9751626334     0.4919982607
C     -4.5679895419     0.840545898     1.3429984276
C     -4.3541475031     -1.6350374036     1.4296178041
C     -4.802931365     -0.5825282797     -0.6811840059
C     -4.7907771811     -0.4774670253     0.7356649043
C     3.7166389165     -1.538741414     2.1240668938
C     3.3142459624     -2.7844152333     1.5943584455
C     3.9870958896     1.2700907062     2.4723594829
C     4.7513272765     0.6200791827     1.5077551371
C     4.6335184007     -0.7824173476     1.3413141224
C     3.4450345591     2.5841740703     2.2011709299
C     4.9050553127     1.2123409418     0.1824722809
C     4.3381803426     2.4260833214     -0.0975345377
C     3.6411289441     3.1604130482     0.9489512239
C     -1.7787908067     1.3709919669     3.5245033869
C     -0.4817199095     1.8729671133     3.4010009829
C     1.0911409665     3.4370944026     2.2707906094
C     2.1452044086     2.6711524569     2.824352431
C     -1.3715792736     3.6253148708     1.8441025305
C     -0.2657825479     3.0830028944     2.6199165987
C     -1.0571984766     4.3378931209     0.6579038499
C     0.2728247519     4.4694264648     0.1997147249
C     1.3666627619     4.1246996473     1.0167501756
C     2.5837206827     3.8938876125     0.3391086501
C     -3.1117314034     3.6050365513     -0.4592148385
C     -3.5776157688     3.0555071137     0.7995344897
C     -2.6994507278     3.0214389058     1.9231073756
C     -2.8981360608     1.9478254022     2.8135380423
C     -1.8965573608     4.2199279389     -0.5228995723
C     -4.621836891     0.5839041188     -1.5192423623
C     -3.5573435822     2.7832047631     -1.5450232743
C     -4.4759559242     1.8304703208     -0.9634999684
C     -1.8053877965     0.5462214225     -3.8930714845
C     -1.0500484847     4.0201105358     -1.6661180846
C     -1.352162506     3.0635901313     -2.6563017618
C     -2.6857358513     2.4411852016     -2.6104648148
C     -2.8852955001     1.1320676272     -3.2143664395
C     -3.840573469     0.2261865092     -2.6741757148
C     2.5791070941     3.5681161271     -1.0736906899
C     0.291720969     4.2322025129     -1.2268758769
C     1.3883509231     3.593329241     -1.8389358494
C     1.1611251564     2.6004457403     -2.8649642662
C     -0.2223630513     2.3820246515     -3.2976670397
C     -0.5144408628     1.1853469373     -3.9757674296


