96

 C     -3.4585274409     1.3126397247     2.7096260873
C     -3.4355010893     2.3418356439     1.7549886616
C     -4.1974566677     2.089677508     0.5762543809
C     -3.8548431944     2.730623357     -0.6644873766
C     -2.8524803165     3.6588179769     -0.696649484
C     -2.3493517738     1.1314339587     3.6114875339
C     -0.0234071743     1.3913342085     4.0622305795
C     -1.203084268     1.9661511858     3.5526864419
C     -1.118525221     3.0364219674     2.5540360935
C     -2.2783374072     3.2498363129     1.7030180091
C     -2.0871947598     3.9677641007     0.5063651616
C     -2.852429517     0.5241110027     -3.4253537304
C     -3.0522712662     1.7730639739     -2.8092449133
C     -4.0078661069     1.7988247156     -1.75072552
C     -0.7641002616     4.3392416853     -1.3631338057
C     -1.9713540085     3.7446495812     -1.8364030796
C     -1.9650970994     2.7403720678     -2.8386959115
C     0.4164626635     4.0864754081     -2.0091852331
C     0.4644310704     3.0969595677     -3.0508488948
C     -0.6726801465     2.3572077954     -3.4148929548
C     1.6445885774     4.0596713207     -1.2718270296
C     2.7556144052     3.5814729205     0.789739937
C     1.6338226925     4.1376125723     0.1492946483
C     1.2628067535     1.88141343     3.6912264933
C     1.388332483     2.9401179899     2.7673938274
C     0.1882766072     3.5126748702     2.1481105103
C     0.351011275     4.1836851855     0.8665887472
C     -0.8023526211     4.4083921543     0.0952216697
C     2.6409285961     3.0091910649     2.1026551521
C     -4.5355074884     0.5981087991     -1.1860259633
C     -3.5032557379     -0.6590881068     -2.9497363131
C     -4.2543114269     -0.6716567331     -1.7379618009
C     -2.6615005932     -1.7693258247     -3.3036816131
C     -2.6376316071     -2.8877951193     -2.5099496998
C     -1.4440962054     -1.2723420463     -3.8851628696
C     -1.3914069396     -3.578331283     -2.2931421347
C     -0.1799131522     -3.1141296305     -2.8505187409
C     -0.2036624592     -1.8943900647     -3.6540874002
C     -0.4373107184     0.9980823447     -3.879943645
C     -1.5581666443     0.1458366717     -3.9626745632
C     1.775876796     2.5169264083     -3.0083555615
C     2.0160890857     1.1769162058     -3.3548065935
C     0.880830096     0.3874547788     -3.8087347725
C     0.9740064211     -1.0591569881     -3.7439973053
C     2.1883516374     -1.6376212849     -3.327540095
C     -3.4386083879     -2.9488480299     -1.3034304897
C     -4.1759816951     -1.8355455483     -0.8431686555
C     -4.3126658014     -1.6484827102     0.6087498988
C     -2.7193620867     -3.803878987     -0.4031212577
C     -2.8304409914     -3.6166338012     0.9525034743
C     -3.6794691372     -2.5826317826     1.46472251
C     -1.4386782959     -4.145294577     -0.9765555834
C     -1.6588003783     -3.729324473     1.7932812484
C     -0.3889067332     -3.9956764164     1.2569278327
C     -0.2804323427     -4.2495625143     -0.1815528497
C     2.2282870949     -2.8823805239     -2.6099556807
C     1.0363377913     -3.5191556494     -2.1922239213
C     0.9859306112     -4.0839031184     -0.8510248467
C     2.1279683758     -3.9644452926     -0.0260219035
C     -4.5324253707     -0.3026751575     1.1452982939
C     -4.6670033071     0.7825340779     0.2494803885
C     -3.1121460373     -2.1942555756     2.7399297817
C     -3.3100321113     -0.923934622     3.2219330575
C     -4.0452210409     0.0328250793     2.4381241438
C     0.0910594478     -0.0201787016     4.2998575895
C     -2.2543207724     -0.2587823928     3.9308226585
C     -0.9916837567     -0.8879654796     4.1055752613
C     -1.824803566     -2.8475624303     2.9015803108
C     2.0073078714     -3.6108310647     1.3633498958
C     0.755590819     -3.4949045444     1.9949651433
C     0.6121382784     -2.5392406177     3.0749042838
C     -0.7279579173     -2.1914848545     3.5125518417
C     1.7254635075     -1.6372253666     3.3620739043
C     1.429846545     -0.410160858     3.9927383377
C     4.0033408035     -2.7201880026     0.5848814665
C     3.1328557237     -2.7908671842     1.7268907079
C     2.9830575806     -1.715219372     2.6247190878
C     4.7314891031     -1.5703541012     0.3504142495
C     4.6663348389     -0.4847058802     1.2828864153
C     3.807156845     -0.5182827319     2.4100866754
C     4.1139679364     -1.6333207867     -2.0277967815
C     3.4049606216     -2.8767010489     -1.7926951708
C     3.3567634039     -3.4133858406     -0.5131914875
C     4.7919174851     -1.0128039417     -0.9963289671
C     4.0184218239     1.2198730301     -1.7827593082
C     3.2261378407     0.5526950735     -2.8216894785
C     3.3258106251     -0.844485728     -2.9353074175
C     4.7756352072     0.4156227808     -0.8924506166
C     4.3464420522     1.9291105394     0.9860741955
C     3.7711171056     2.872333339     0.0694696601
C     3.589109792     2.5225714812     -1.2965032677
C     2.5286189425     3.170099749     -1.9589685848
C     4.8485190733     0.738437993     0.5203567963
C     2.186145841     0.7829972079     3.7221352526
C     3.3395949965     0.7650013041     2.923846899
C     3.6230058986     1.9699066746     2.2252680774


