96

 C     0.7334548735     4.2951896514     1.0493567802
C     0.6054022219     4.2301735858     -0.3549239881
C     -0.7166512157     3.9651757393     -0.8962955854
C     -0.7957306783     3.4834364636     -2.2798175817
C     0.387402617     3.1278527777     -2.967097269
C     -1.9666237212     2.851906318     -2.7487171612
C     -0.3546291649     4.0044638445     1.9088200861
C     -1.6383397764     3.702178732     1.4219231766
C     -1.8443365954     3.7353892418     -0.0159645829
C     -3.9406722667     2.4078405376     0.3298282591
C     -3.0583292266     3.0998056381     -0.5443817082
C     -3.1188751901     2.6916346309     -1.8946584869
C     -3.6291784374     2.2660373549     1.7375801261
C     -2.4975792559     2.8818123446     2.2869901921
C     -1.9309141258     2.2187080962     3.418281733
C     -1.9283928319     1.7618177426     -3.6674972136
C     -0.6924122189     1.1833920672     -4.0581757552
C     0.4436006238     1.9673176776     -3.8051887519
C     1.7404322829     1.3833137487     -3.6612882954
C     0.7368869682     -0.8599665178     -3.7801895488
C     1.9205644518     -0.0052419008     -3.6093442832
C     -3.080461206     0.9444428501     -3.3992643083
C     -2.9835428213     -0.420321963     -3.5294287907
C     -1.7129562161     -1.0350208965     -3.8555172946
C     -0.5377699584     -0.2618060149     -4.0777897285
C     0.7549460962     -2.1933832207     -3.2094412455
C     1.9661288029     -2.6785402081     -2.6925323588
C     -3.7038671502     -1.2803590151     -2.610593267
C     -4.6204383095     -1.5630074364     -0.4050329281
C     -4.4950439241     -0.7414332014     -1.5570113179
C     -3.8406683719     1.5299635194     -2.3136163179
C     -4.6725995785     1.2573350125     -0.0842780727
C     -4.5410026037     0.7179977337     -1.3918195381
C     3.1636695479     -1.8620797695     -2.6174652638
C     3.1260550544     -0.4961643     -2.9383059224
C     3.9925727626     0.4167342008     -2.183535922
C     3.9669303192     -2.380552845     -1.5504538051
C     4.7182536405     -1.5029996431     -0.7795013045
C     4.7620768597     -0.1194095776     -1.1218264909
C     3.2371592778     -3.4630353701     -0.9252423957
C     4.6763488002     -1.6060038234     0.6746002027
C     3.9422308424     -2.6022796847     1.2710828549
C     3.2601867486     -3.5920365066     0.4562156182
C     -1.6730577275     -2.2756808793     -3.1747978765
C     -0.4614517999     -2.8539414855     -2.7603505644
C     0.8018821227     -4.0752125061     -1.0007631664
C     1.9946777156     -3.6409488215     -1.6461595736
C     3.6362073192     1.8304114926     -2.1021791812
C     2.5437101613     2.2836940285     -2.8593995562
C     4.8953599263     0.6170259688     0.1285974855
C     4.4977093216     1.9197617316     0.2195525888
C     3.9272573146     2.5848532086     -0.9309753242
C     4.6518707334     -0.2831449061     1.228927878
C     3.0592301462     3.5083764342     0.9995568945
C     3.033450987     3.5866983007     -0.4428279358
C     1.8230315627     3.9061462617     -1.1194158843
C     1.6858219476     3.3277716604     -2.3969834514
C     1.9504663518     3.8540772621     1.7183613341
C     0.1959805114     3.3180675571     3.0745959321
C     1.5962626932     3.0935270297     2.8780961721
C     -0.5465110765     2.3963319611     3.7482319841
C     3.0886390496     -2.2853624237     2.388873392
C     2.9155859008     -0.9660750347     2.8637271533
C     3.7741063246     0.076809323     2.2936412749
C     3.3881074662     1.4764037265     2.4061620548
C     3.850389187     2.3852446896     1.4123163323
C     1.6427179754     -0.6153751695     3.5053369208
C     1.3575053964     0.7832236839     3.7350185164
C     2.2011513756     1.8338108185     3.1581494699
C     0.0351888184     1.1258589222     4.1042473634
C     1.9857918678     -3.2002173581     2.3467339298
C     -0.3618651441     -3.5941311967     2.4476544944
C     0.7490711044     -2.8766892691     2.936108959
C     0.5548505653     -1.5805043975     3.5538001847
C     -0.8230817669     -1.1590475331     3.7852789348
C     -1.033956552     0.1855044927     4.0989379224
C     -1.6922539198     -3.8695426043     -0.8161423001
C     -0.4625493204     -3.7341415624     -1.6004405579
C     -1.5684637021     -4.1824660861     0.5531502703
C     -0.2961140494     -4.2772980272     1.1828196353
C     0.8902137383     -4.3231091017     0.4321540215
C     2.0678059037     -3.9795088744     1.1413747364
C     -3.6026564568     -2.9463582163     1.1496572757
C     -3.8801850589     -2.7696771489     -0.2631114904
C     -2.9199058643     -3.186951477     -1.2316703016
C     -2.9066218417     -2.4436662581     -2.4249905636
C     -2.4784043168     -3.6213334092     1.5339839121
C     -4.7791535379     0.3888591581     1.0732544466
C     -4.0309855128     -1.7953400803     1.8788193087
C     -4.7507941769     -0.9747895423     0.9274742085
C     -2.2655332339     0.8741662658     3.7314683039
C     -1.7049314048     -3.1424573696     2.6450962331
C     -1.9762505039     -1.9135017933     3.2673062961
C     -3.220947693     -1.2280489403     2.8988507649
C     -3.3258517474     0.207136538     3.0905718789
C     -4.0981750266     0.9940233427     2.1859167183


