96

 C     2.2212615946     -3.849993207     0.6156318797
C     3.2677379382     -3.0990298059     1.1613543983
C     -0.1564481197     -4.4701190455     -0.8484802012
C     0.9903061672     -4.209968646     -1.5351698779
C     2.2211666334     -3.9890571215     -0.8223791857
C     -2.2842003168     -3.8772515163     -0.2223478593
C     3.0176646094     -3.1573536658     -1.6344084147
C     4.0285206147     -2.3278555169     -1.070721835
C     4.2035955091     -2.38055784     0.343423254
C     4.3270703995     -1.1306033837     -1.7507152875
C     2.2128502961     -2.7215622812     -2.7881492698
C     2.3398543752     -1.4116341016     -3.2834406491
C     3.4856931498     -0.6754201278     -2.8481363301
C     2.3353830401     1.4590821925     -3.2713723724
C     3.4835154999     0.7228083247     -2.8422579476
C     2.2043002605     2.7643947588     -2.7650726701
C     -3.8752953237     -2.5869296947     1.0106851255
C     -3.4245369115     -3.0619720817     -0.2542164166
C     -1.4148408827     -4.0249690034     -1.3538871937
C     -3.687529448     -2.2918369871     -1.4662497521
C     -2.6748518167     -2.2917610038     -2.535466773
C     -1.4968762934     -3.141192684     -2.4597609805
C     -0.2475448873     -2.7478307079     -3.1156152238
C     0.9506892367     -3.3697886315     -2.7041530212
C     1.1426690345     0.7513069967     -3.7123482693
C     -1.2994060607     -0.6888417015     -3.8590587488
C     -0.1147724377     -1.4269823094     -3.7104135251
C     1.144935922     -0.70389477     -3.7184665443
C     4.8047070325     0.0181902653     -1.0479925865
C     4.893169743     0.0122893159     0.3871979537
C     4.6062546541     -1.2118621134     1.06622664
C     4.60244795     1.2297802073     1.0764990985
C     4.3234802705     1.1713588009     -1.7410327171
C     3.0077665991     3.1929669919     -1.6076958807
C     4.0212067814     2.3619112779     -1.0509917623
C     4.1961400273     2.4032568108     0.3635468168
C     3.9401948415     1.2274567913     2.3612677911
C     3.5756481742     -0.0007072264     2.9872684021
C     3.9440097913     -1.2224159334     2.3509604454
C     2.4003946168     -0.0057838168     3.7583809653
C     3.0763214281     2.359095863     2.4072242488
C     -0.1850749767     4.379282194     0.6480615934
C     0.9324147334     3.9367029985     1.3732374507
C     0.7005574133     3.0971707491     2.5575020361
C     1.8156484162     2.3251740451     3.0705968304
C     1.5512571485     1.1556819559     3.8279117717
C     3.2580638179     3.1119015988     1.1874826617
C     2.2086915372     4.0153244707     -0.7887045185
C     2.2092430192     3.8641683049     0.6480857107
C     1.5548817927     -1.1704321163     3.8181300383
C     1.8229055993     -2.3326803338     3.0510051834
C     3.0836680049     -2.3570861498     2.3873868047
C     0.710218417     -3.1038034995     2.5314176822
C     0.9446727883     -3.9326111412     1.3401304392
C     -0.1714413506     -4.3725536566     0.6112456914
C     0.2220657371     -0.7372973611     4.0367172351
C     -3.2317729486     1.3866635802     2.9256662261
C     -2.1421654995     0.7210905642     3.5181515679
C     -2.1398823039     -0.7447576764     3.5119844474
C     -0.88039983     -1.4734623122     3.6100217143
C     -0.6406854686     -2.7172443763     2.8787165558
C     -3.2274163986     -1.4087108566     2.9139019595
C     -1.7530928788     -3.2526400139     2.1261672955
C     -1.4966667286     -4.0394022732     0.9790812848
C     -1.509249709     4.0389170449     1.0130667833
C     -1.7632091939     3.2417373127     2.1534893852
C     -0.649129175     2.703493785     2.9015204905
C     -0.8849589226     1.4528633104     3.6223317303
C     0.2198024742     0.7165720734     4.0428306111
C     -3.0205251436     2.6033955366     2.1860108466
C     -4.31881793     0.6797556476     2.3106929376
C     -4.3166658656     -0.7000440359     2.3048848625
C     -3.0123919422     -2.6185141458     2.1640394642
C     -5.034067806     -0.7295488112     -0.0499073912
C     -4.7026821832     -1.4203664372     1.1051262385
C     -4.3422769274     0.0085000948     -2.1332601079
C     -4.5440786951     -1.1740967333     -1.3389307175
C     -3.3744343919     0.0141431672     -3.115954552
C     -4.7070907493     1.4089411701     1.1170315014
C     -4.5477512128     1.183736475     -1.3290079989
C     -5.0363339675     0.7268354683     -0.0437818763
C     -2.2962913028     3.884432464     -0.1896943771
C     -2.575720863     1.1817759903     -3.3373903625
C     -2.6820336849     2.3172518346     -2.5160769232
C     -3.6946899248     2.3051746094     -1.4469100386
C     -3.4340822917     3.0658978297     -0.2284354083
C     -3.8833422132     2.5788266293     1.0324176137
C     -0.256168372     2.7857483723     -3.0923377438
C     0.9401278026     3.4079501796     -2.6756411386
C     0.9771441464     4.2383880178     -1.4996267621
C     -1.506711022     3.1696844665     -2.4332130995
C     -1.427414016     4.0443790268     -1.3199422913
C     -0.1704071905     4.4891806036     -0.8107903792
C     -2.5720889231     -1.149091592     -3.3471976209
C     -1.3016163133     0.7298172288     -3.8530914045
C     -0.119288224     1.4703710495     -3.6982256565


