96

 C     -4.1846035441     1.7077824084     -0.5102253976
C     -4.6473947533     0.431642895     -0.1470154397
C     -2.4426962614     3.7666510355     -1.3727455631
C     -2.952587689     2.8914454804     -2.3065580089
C     -3.8590493053     1.8696721779     -1.8840889614
C     0.1410436362     1.8044542414     -3.9582389173
C     -2.1000124801     2.3779599688     -3.33839461
C     -0.7293762816     2.7453744814     -3.3874637129
C     -0.1764971332     3.686802093     -2.416584655
C     1.2437666937     3.5802919021     -2.0306129593
C     -1.0848732147     4.2483191418     -1.4944320478
C     1.6320256168     4.1357155438     -0.8021335545
C     -3.623923654     0.7286460679     -2.7204790251
C     -3.8804588886     -0.5871809972     -2.2782666291
C     -4.5894789542     -0.6885160162     -1.0549809273
C     -4.5386895555     -1.8785214801     -0.2573930938
C     -3.7800420167     -2.9493629154     -0.6908853821
C     -2.5196042384     1.02047538     -3.5802814241
C     -0.2986402932     0.4770986997     -4.2768889303
C     -1.5899107624     0.0100546377     -3.9413866198
C     -1.7652829489     -1.356520269     -3.4449894707
C     -2.9655650429     -1.6603424694     -2.6808330526
C     -2.9774727469     -2.8310811888     -1.8946138436
C     -3.8125871704     -2.2415809018     2.0553500873
C     -3.0502814223     -3.3935647152     1.6174123119
C     -4.5362623682     -1.4938993201     1.1433524153
C     -3.0286991884     -3.7308079632     0.2673488018
C     -1.7983907248     -4.1206819391     -0.3394388794
C     -1.8297026718     -3.4118141155     2.3652584545
C     -0.6075589534     -3.8030268146     1.7963063219
C     -0.6042642457     -4.211588376     0.3917435697
C     1.8489957314     -3.4165002189     -2.3487956299
C     0.6283852819     -3.8096227075     -1.7778669099
C     0.6266752449     -4.2111033402     -0.3712645163
C     1.8204323198     -4.1118390621     0.3594400032
C     0.8305452622     -0.3835367551     -4.1975735995
C     0.6951253167     -1.7188547775     -3.770042701
C     -0.6035578304     -2.2088055002     -3.3262713663
C     -0.6049890902     -3.3094397922     -2.3788521467
C     -1.7905295906     -3.5981567937     -1.7005371338
C     1.8816068815     -2.325540486     -3.2965959147
C     -1.9771125059     0.414667619     3.8467646076
C     -3.0715385333     -0.1472872113     3.1673593274
C     -3.0740670807     -1.5691849021     3.0842674985
C     -1.86659724     -2.3162262568     3.3075473886
C     1.810509528     -3.5824860646     1.7178840896
C     0.6238419546     -3.2949948229     2.3947452631
C     0.6180900901     -2.1896094894     3.3366004571
C     -0.6825047379     -1.7025181431     3.7779136895
C     -0.8231562972     -0.3656004689     4.19870924
C     -3.7445608706     0.6597414206     2.1586530845
C     -4.5107381983     -0.0490233376     1.194806765
C     -1.5367369162     1.7429531653     3.5933654285
C     -2.1028892458     2.5336258575     2.5637091955
C     -3.2289538257     1.985704009     1.8166570657
C     -3.5301709499     2.5307965051     0.5025196375
C     -2.7500466135     3.6114328652     0.0320268853
C     0.1679547756     3.6996185489     2.3972016827
C     -1.2518780524     3.5855979559     2.0117881925
C     -1.6422967086     4.133292832     0.7805241722
C     1.074132626     4.2600324689     1.4722209639
C     0.6576994382     4.6196060031     0.1474660154
C     -0.6698630694     4.6162010171     -0.1715135259
C     -0.1422278179     1.8238420416     3.9483350076
C     2.0965735161     2.402987221     3.3255844217
C     0.7245095964     2.7652711748     3.37281141
C     2.9944396029     -2.8098004176     1.908079938
C     2.9779382491     -1.6351636074     2.6883829899
C     1.7764686731     -1.3321925135     3.4510067917
C     1.5957394313     0.0361696574     3.9405099517
C     0.3026514692     0.4998374249     4.2736713599
C     2.521476278     1.0483901843     3.5743064249
C     3.8576033532     1.8942642161     1.8738452717
C     2.9471440016     2.9145981956     2.2911644956
C     2.4338348019     3.7830772203     1.3529520873
C     4.6515919199     0.4505867238     0.1440360826
C     4.1838012261     1.7267209824     0.5008126907
C     3.7974791053     -2.9310080449     0.7049581904
C     4.5519334211     -1.859403372     0.2660652614
C     4.5980569404     -0.6651997969     1.0576417536
C     3.888629109     -0.5604722023     2.2804034028
C     3.6269358348     0.7565548893     2.7159803544
C     3.8272785195     -2.2369594564     -2.0448097612
C     3.069484512     -3.3897007189     -1.6010635564
C     3.0492094504     -3.7202150151     -0.2493176685
C     4.5480103342     -1.481860169     -1.1366031424
C     1.9814340879     0.4030093367     -3.8495785527
C     3.0780444616     -0.1512195082     -3.1673564833
C     3.0861387884     -1.5726594471     -3.0770953512
C     2.7418052816     3.6219806903     -0.0510184569
C     3.5261593804     2.5420462249     -0.5160620336
C     3.2270926801     1.9891559069     -1.8274311412
C     2.0988970272     2.5288888205     -2.5772307339
C     1.5358616249     1.7308214479     -3.6028787462
C     4.5168302379     -0.0373732202     -1.1953389182
C     3.7478883707     0.6635183205     -2.1627414065


