96

 C     -3.3936428964     1.8922362153     -2.9082495247
C     -4.404207893     1.0445117449     -2.4944895975
C     -4.2104868438     -0.3868675783     -2.5760274967
C     -3.3877614838     -2.8041523699     -1.3893838615
C     -1.167138824     -2.5909045011     -2.3686837634
C     -2.5534333238     -2.2017693547     -2.3517569827
C     -2.962849926     -0.9387210041     -2.9623111048
C     1.0910788556     -2.2184234391     -3.1871451471
C     -0.2399438732     -1.8227711815     -3.1726720057
C     -0.5499624877     -0.4584240296     -3.5372032332
C     -1.9284812223     -0.0361364382     -3.46702567
C     -2.183865575     1.3486322642     -3.4593451332
C     -4.7450883817     2.3997710471     -0.4754081861
C     -3.6502671058     3.2486200177     -0.8858057454
C     -5.1585328799     1.3402904983     -1.2888479042
C     -3.0327594221     3.0486189354     -2.1133619718
C     -1.6198591263     3.2480819126     -2.2435983245
C     1.420148748     3.7086340704     -0.1245671891
C     2.8047197367     3.5185676862     -0.2359819242
C     0.6094223291     3.4317560731     -1.2839725136
C     -0.8116551061     3.6358004725     -1.1639474785
C     -1.4341331626     3.7072478549     0.1548936971
C     -2.8187222499     3.516111274     0.2642401962
C     0.2179798823     1.862861236     -3.1532187903
C     -1.1130671824     2.2586307909     -3.1601736671
C     4.189937797     0.4206216758     -2.5818167294
C     2.9413761171     0.9766190042     -2.9590639623
C     2.5334529638     2.2329587537     -2.3338447197
C     1.1471266947     2.6222348297     -2.3431857283
C     3.3701157368     2.8248717775     -1.3670120733
C     0.5270986991     0.5025574136     -3.5332912753
C     2.1611615349     -1.3052158529     -3.4790124219
C     1.9057773344     0.0795512259     -3.4710395632
C     -5.5449543361     -0.0750761788     0.6963546466
C     -5.0017815703     0.9884212971     1.5263391401
C     -5.5466279111     0.0813226512     -0.6928253698
C     -4.607043056     2.1836355435     0.9512679278
C     -3.3841820676     2.8102328672     1.3876764101
C     -0.2321344651     1.8285987382     3.1633287789
C     1.0989490091     2.2241468477     3.1745789728
C     -1.1612105196     2.5968066632     2.361589346
C     -2.5475718498     2.2077813853     2.3480256006
C     -2.955608289     0.9447669977     2.9595720985
C     -4.2042216466     0.3930116006     2.5763160478
C     0.7976626502     3.6229341683     1.1934220596
C     -0.6234323459     3.4177288297     1.3112254308
C     1.6058312054     3.2234441004     2.2688009831
C     -3.38675254     -1.8861609887     2.9065541776
C     -5.1555138966     -1.3340733752     1.2914340905
C     -4.3982480427     -1.0383552634     2.4952453419
C     -1.9200913094     0.0420976273     3.4617750247
C     -0.5413759741     0.4642759796     3.5286093256
C     -2.1756011033     -1.3426524538     3.4547160983
C     -3.0278840114     -3.0425719736     2.1107929809
C     -3.648375453     -3.242521452     0.8847355451
C     -4.7441197562     -2.3935850334     0.4769937533
C     -4.6095129045     -2.1774599471     -0.950010431
C     -5.0055506823     -0.9822141891     -1.5241225062
C     -1.6146886306     -3.2421480174     2.2376055694
C     1.4201440211     -3.7029353406     0.1112144043
C     2.8049955701     -3.5129787807     0.2192772144
C     0.6122476247     -3.425996061     1.2725800568
C     -0.8091314766     -3.6299276968     1.1559984951
C     -1.4348050896     -3.7013247758     -0.1613321276
C     -2.819639646     -3.510077501     -0.2673228336
C     2.1696643099     1.3108543609     3.4638546771
C     1.9141543379     -0.073892612     3.4564999495
C     0.5355984269     -0.4967896887     3.522087679
C     0.2254553508     -1.8570699428     3.1427694547
C     -1.1056021574     -2.2527354204     3.1529502986
C     2.94843972     -0.9710424479     2.9420216141
C     2.5389073408     -2.2273500679     2.317791136
C     1.1525784136     -2.6165177789     2.3304898176
C     3.3731819534     -2.8193290835     1.3489363452
C     0.7944763202     -3.6171852491     -1.2052645167
C     -0.6268834183     -3.4118699797     -1.3196245404
C     1.6000722203     -3.2177581135     -2.2825949488
C     4.9911380137     -0.9991095477     1.5034490404
C     4.5949916524     -2.1880158449     0.9163948965
C     4.7295820659     -2.3886503072     -0.5128716077
C     3.6337602005     -3.2330086005     -0.9298079843
C     3.0132873     -3.0197016947     -2.1536213119
C     3.3794913762     1.8602984517     2.9186943657
C     4.3899784961     1.0170212247     2.4957581704
C     4.1961285097     -0.4151428519     2.5617544147
C     4.7309828316     2.394086792     0.4915080486
C     3.6362401375     3.238532939     0.9110946056
C     3.0187140009     3.0252748575     2.1364067156
C     5.1443321523     1.3258005933     1.2933996916
C     5.5306265448     -0.0679678524     -0.707048597
C     4.9875510135     1.0045253239     -1.5254385845
C     4.5929189365     2.1934629635     -0.937428529
C     5.5323141057     0.0733414201     0.6837466054
C     3.3722620595     -1.8547550298     -2.9367811166
C     5.1410729074     -1.3203963904     -1.3157612473
C     4.3838359072     -1.0115577157     -2.5162909988


