96

 C     1.4344330738     4.3874116262     0.6583689698
C     2.6540645581     3.6978987289     0.741591569
C     3.3113770276     3.4733916808     -0.4979434163
C     4.3356629531     2.4834614325     -0.6257469795
C     4.7203010898     1.7531932949     0.4859073767
C     0.4163729809     4.2427235142     1.6854093294
C     -0.6515856129     2.7264207284     3.1943046206
C     0.554335425     3.2123253579     2.6567638909
C     1.7330411787     2.3631728135     2.6745394038
C     2.8572945604     2.7411205177     1.8326555488
C     3.9214214661     1.8422480317     1.7048285817
C     4.4213154128     -1.6708201144     1.4358936821
C     5.1601791567     0.3886608079     0.3337587367
C     4.7202218734     -0.3304706898     1.5103462871
C     -0.7579912865     1.3593186933     3.6416614242
C     0.3152536929     0.4712903326     3.5372665295
C     1.6183710902     1.0004364225     3.1461802224
C     2.6805673693     0.0557065729     2.9027524291
C     3.8651617006     0.5348938862     2.286678276
C     3.3166334823     -2.2120898149     2.186365444
C     2.3991646967     -1.3817041892     2.8712033341
C     4.4534719385     -2.3441078451     0.1516040993
C     4.6466070038     -1.6075770655     -1.0072527142
C     5.0723198738     -0.2348996605     -0.920772827
C     4.448596559     0.4729474472     -2.0185559797
C     4.1396976037     1.8068484423     -1.8951404971
C     3.4545685733     -3.3608827008     0.168696612
C     2.6345998545     -3.5995393921     -0.966454231
C     1.4848125989     -4.351942302     -0.7271722119
C     1.0262465365     -4.6394008298     0.5989246209
C     2.848443743     -3.3698036611     1.4702732357
C     0.0022489237     -0.953133192     3.4346281791
C     1.0415253315     -1.8831613725     3.0884953771
C     0.6839230083     -3.2061082197     2.6020056764
C     1.5742831939     -3.9003204466     1.685869119
C     -1.0853286216     3.6292157079     -2.3883490996
C     0.2724394153     3.2695666737     -2.5903801939
C     1.9537595201     1.4694721125     -3.0447785602
C     2.9357490402     2.3214525125     -2.4858363681
C     3.5017539328     -0.4129235616     -2.6575187177
C     1.3531368126     -2.2795098133     -2.6970320639
C     1.1418173878     -0.9245601032     -3.1609405403
C     2.2283759955     0.0350717278     -3.0957911771
C     -2.2248035971     -3.401790012     -2.2385693304
C     -1.1186348577     -2.7203458704     -2.8345049751
C     -1.3162996265     -1.3549799271     -3.315931076
C     -0.2110742203     -0.4308979418     -3.3998497265
C     -0.4755765618     1.0109785565     -3.3926930147
C     0.5864830716     1.9557144874     -3.1240411753
C     -2.6424882077     -0.8341502377     -3.259807506
C     -1.8473536906     1.4773812089     -3.2658551644
C     -2.1203072793     2.7620268526     -2.7251506075
C     2.6158359494     -2.6300011532     -2.0572829937
C     3.6720100838     -1.7116429887     -2.0903923408
C     0.2159348401     -3.1686120518     -2.5031927028
C     0.3448361414     -4.2606154789     -1.5984613274
C     1.2348700296     3.9579503157     -1.7538978559
C     2.5390212317     3.469257665     -1.7090615729
C     -1.5220390663     4.3858139277     -1.2144788586
C     -0.6068164556     4.8015646762     -0.2931895447
C     0.7913553194     4.6420884889     -0.577844528
C     -2.8183445707     3.8940315262     -0.7993375605
C     -3.1146786345     3.679637792     0.591707858
C     -4.0364448647     2.6463942966     0.8829116774
C     -4.0444020423     0.7585385119     -2.2822224503
C     -4.1368240105     1.9265847413     -1.4876649797
C     -3.2371027611     2.9742857377     -1.7829441869
C     -4.5676631359     1.7890855013     -0.1379002361
C     -2.8981976961     0.5442435051     -3.1743482338
C     -2.055584349     3.9788216152     1.5742719651
C     -0.8458742397     4.5759486004     1.128505739
C     -1.932933763     3.1508330343     2.7181663886
C     -4.2903741278     0.4887381819     1.7814228813
C     -3.8958670298     1.8320620936     2.0769930094
C     -2.851526646     2.0610992111     2.9504929056
C     -3.6162712612     -0.6214023373     2.328961679
C     -2.4641124919     -0.3715420508     3.1911564408
C     -2.1314341231     0.9547120034     3.4954097731
C     -4.4365579974     -0.4975024383     -1.7758241535
C     -4.2787095796     -1.9339740084     0.2671992469
C     -4.6983894703     -0.6862306062     -0.3730325038
C     -4.7757492078     0.4717723403     0.4171880512
C     -2.8760502568     -2.9191779186     2.0435329348
C     -3.73284297     -1.8874472471     1.6241243282
C     -2.5530537433     -4.0317813203     1.2067783039
C     -3.0002327641     -4.0341908567     -0.1143439825
C     -3.8570467388     -2.994752827     -0.5709575018
C     -3.4506654606     -2.7053016576     -1.9435977902
C     -3.6803103736     -1.4886518138     -2.4959986305
C     -1.2056585614     -4.4607065046     1.5203793824
C     -0.3716775658     -4.9180215819     0.5191362707
C     -0.7774942513     -4.7792813962     -0.873214245
C     -2.0445632846     -4.3439740408     -1.1810284583
C     -1.3958602311     -1.3445824233     3.3041909863
C     -1.6988980018     -2.6418402516     2.8628520143
C     -0.6806810127     -3.5692920211     2.5437003796


