96

 C     0.7373805779     -3.6383635231     -2.1136839852
C     1.4551519964     -2.4931403044     -2.6524281044
C     2.8373672185     -2.4263270641     -2.3847068353
C     3.5303368408     -1.1743764721     -2.3965394865
C     2.8726366139     0.011796948     -2.7767619567
C     3.5252416987     1.1992882675     -2.3918989063
C     -2.7186356435     -4.2118207692     -0.7572275253
C     -1.3878974615     -4.4795164706     -1.1885613924
C     -0.7112296356     -3.6414588631     -2.1211708334
C     -3.4658049665     -3.2733500494     -1.4345520717
C     -2.8134619283     -2.4384008153     -2.4139124533
C     -1.4282809976     -2.4993015464     -2.6673311462
C     -0.7049718332     -1.2587236273     -3.0148076747
C     0.7301792991     -1.2556572361     -3.0073908319
C     1.440813189     0.0092552001     -3.0487188437
C     4.5456350241     -1.1818544749     -1.3808005651
C     4.5405055698     1.2071531872     -1.3761301439
C     4.8989589526     0.0121116256     -0.7126569077
C     4.4274048968     2.4604193603     -0.6753063492
C     4.4201920331     2.4576734082     0.7212828859
C     3.469078876     3.2792749887     -1.3858562758
C     3.4545613556     3.2737476954     1.4251117116
C     2.7073922094     4.212219512     0.7477877228
C     2.7149345631     4.2150902706     -0.7126002638
C     -1.4205389193     0.0031411868     -3.0635077486
C     -0.7103957125     1.2678668522     -3.0098700324
C     0.7247555414     1.2709331692     -3.0024522851
C     1.4444117964     2.5101206115     -2.6426475458
C     2.8269030087     2.4481959551     -2.3751775802
C     1.3887168183     4.4845072861     -1.1565999957
C     0.7217346455     3.6501359918     -2.099435978
C     4.4379217532     -2.438325439     -0.6848838661
C     4.5260737561     1.2016587035     1.4183041418
C     4.891384987     0.0092278519     0.7538740299
C     4.5312033179     -1.1873486452     1.4136332314
C     4.430708556     -2.4410708902     0.711706246
C     2.8022180018     2.4387979018     2.4044712498
C     3.5003725612     1.1898196203     2.4234931502
C     2.8438511414     0.000838136     2.7969244149
C     3.5054681574     -1.1838444716     2.4188546033
C     1.4170366164     2.4996987739     2.6578898143
C     0.6937271739     1.2591208504     3.0053663862
C     1.4092949014     -0.002744206     3.0540666625
C     -1.4663965343     2.4935374798     2.6429857532
C     -0.7414235706     1.2560544959     2.9979490007
C     -2.8486113629     2.4267239391     2.3752634937
C     -0.7486253201     3.6387607554     2.1042425817
C     0.699985536     3.6418561423     2.1117302339
C     -1.4191911891     4.4739410313     1.1646706334
C     1.3766537928     4.4799149776     1.1791217283
C     2.7329996012     -4.2001732859     -0.7290514386
C     2.7254575609     -4.2030446844     0.731336451
C     3.4831134528     -3.2585026387     -1.3986370207
C     3.468596973     -3.2640297501     1.4123307297
C     -0.6687550678     -4.9264661655     -0.0178297188
C     0.67865719     -4.9235879107     -0.0108661638
C     1.3958840672     -4.4781355939     1.161609836
C     2.8126827508     -2.4357239686     2.3949424825
C     1.4277774104     -2.5035618608     2.6481101572
C     0.715632066     -3.6466428282     2.0974822204
C     -1.4556561     -2.5097220798     2.6332066328
C     -0.7329786336     -3.6497376088     2.0899952115
C     -1.3999605038     -4.4841091148     1.147160069
C     -2.8381471476     -2.4477971131     2.3657355763
C     -3.4803227259     -3.2788762832     1.3764148509
C     -2.7261785531     -4.2146919598     0.7031598935
C     -3.5415811679     1.1747735417     2.3870952882
C     0.6991519796     -1.2674692999     3.0004294146
C     -3.53648529     -1.1988899383     2.3824564235
C     -1.4520576005     -0.008857914     3.0392773465
C     -0.7360004709     -1.2705355016     2.9930121816
C     -2.8838811007     -0.0113996539     2.7673197077
C     1.4079470251     -4.4735434465     -1.1741119972
C     -4.4491645544     2.4387220315     0.6754399278
C     -4.5568780895     1.1822514606     1.3713569403
C     -4.9102019696     -0.0117146037     0.703213534
C     -4.5517495359     -1.2067552882     1.3666870443
C     -4.4419510972     2.4414677612     -0.7211489518
C     -2.7367009229     4.2034416321     -0.7407781832
C     -2.7442435365     4.2005704179     0.7196094792
C     -3.4943571791     3.2588994456     1.3891941205
C     -3.4798397821     3.2644266766     -1.421772665
C     0.657511036     4.9268639867     0.008389762
C     -1.4071277227     4.4785332256     -1.1710509543
C     -0.6899011421     4.923985587     0.0014252725
C     -3.511615898     -1.1894229111     -2.4329354669
C     -2.8550947267     -0.0004413862     -2.8063661518
C     -3.5167113724     1.1842415559     -2.4282960345
C     -2.82392607     2.4361215297     -2.4043843107
C     -1.4390213564     2.503959433     -2.6575514717
C     -0.7268757128     3.6470406244     -2.1069233605
C     -4.4386481671     -2.4600209417     0.66586461
C     -4.4314352038     -2.4572754485     -0.7307243988
C     -4.9026277853     -0.008830957     -0.7633169677
C     -4.5373173491     -1.201261554     -1.4277459565
C     -4.5424454803     1.1877454736     -1.4230760422


