96

 C     -3.5321219718     -2.0227509226     -2.0592609019
C     -2.5026392642     -2.9683149445     -1.9414002101
C     -2.5547000708     -3.7895290467     -0.7821584956
C     -1.2328459379     -2.7239506753     -2.6106155548
C     -0.1127555484     -3.5709560013     -2.2617186601
C     1.1585215181     -3.2044186361     -2.7274436628
C     1.3913669099     -1.9161449289     -3.303890302
C     0.3548697266     -0.9858543687     -3.4675406536
C     -3.3445784302     -0.8126082496     -2.8219318637
C     -2.7192117407     1.9058538676     -2.9875899448
C     -1.7320273907     0.9742245479     -3.3861505741
C     -2.0613393794     -0.4458890727     -3.2874143462
C     -0.9993826743     -1.4358934605     -3.2287454213
C     -0.1683753005     -4.4017635133     -1.0538359319
C     -1.3501669419     -4.4250104919     -0.2983829179
C     2.3794856276     -3.6144465322     -2.0589051805
C     2.3069130091     -4.2634132594     -0.836047353
C     1.0232611465     -4.6171092898     -0.3116976434
C     3.3701424145     -2.5860593394     -2.2682496907
C     3.1349428552     -3.8133897775     0.2675318585
C     4.1149012499     -2.8693071609     0.0562385658
C     4.2776707693     -2.2690941252     -1.2622272777
C     2.7590157785     -1.5264191563     -3.0148625375
C     0.7096465445     0.434433723     -3.484419107
C     1.0447727102     -4.361660152     1.1001797364
C     -0.1236770559     -4.083616599     1.813273218
C     -1.3407091962     -4.3504849584     1.1218069887
C     -2.5836816007     -3.7409410158     1.5121599251
C     -2.5838510798     -2.8701218978     2.5719489513
C     2.3006128775     -3.7312103893     1.4363463447
C     2.3505624788     -2.6200491319     2.3120707754
C     1.1081494673     -2.2204117844     2.9945460828
C     -0.0805212141     -3.0360415519     2.8261673867
C     -1.3302973085     -2.5055271789     3.216838259
C     2.0949802643     0.0579296001     3.367270491
C     0.9718112356     -0.8626886307     3.4686070893
C     -0.3572928453     -0.3041893752     3.6900334183
C     -1.4574949112     -1.1569436587     3.6056577959
C     1.821450771     1.4367646571     3.510928918
C     3.3236099396     -0.3298906924     2.6959788382
C     3.4396054681     -1.6664626467     2.1341638052
C     4.140371792     0.7040914665     2.1555304801
C     4.3386436797     -1.8584128454     1.0425866644
C     -4.7112425781     -0.1089784541     1.2764100895
C     -4.3417995583     -1.4598130697     1.4645682409
C     -3.4620307999     -1.7190515537     2.5616398004
C     -2.7744978581     -0.6693636303     3.2173722208
C     0.4770094544     1.9559248315     3.5333969012
C     -0.6278492888     1.1268960983     3.5583089248
C     -1.8958941583     1.628702422     3.0152510458
C     -2.9835347528     0.6881946159     2.882147093
C     -4.0435301833     0.9511299154     1.9833300457
C     -4.2552427027     -2.332531311     0.2869550281
C     -3.3712496695     -3.4428902707     0.3284637085
C     -5.0706956176     0.4092538467     -0.0273351933
C     -4.9104925147     -0.3944742778     -1.1489869065
C     -4.4560079006     -1.7565560628     -0.9921333714
C     -4.6846423214     1.803439756     -0.0817798501
C     -4.2822596661     0.1521236137     -2.3341840124
C     -3.9614884594     1.4947697961     -2.4024876247
C     -4.2214029294     2.3527604958     -1.2651009141
C     -3.1950788818     3.3516480047     -1.2161801941
C     -1.3947658073     4.4375453412     -0.0803264677
C     -2.6353886584     3.7833204224     0.018480275
C     0.4513465258     3.2288985543     2.8654534797
C     -0.7037356232     3.643027661     2.1635342804
C     -1.917449831     2.8483900322     2.2550548617
C     -2.9627257237     3.047790489     1.2430837914
C     -4.0217559672     2.1314169037     1.1676756306
C     -0.4612386615     4.4653395536     1.0297589167
C     0.7319969517     4.6367560052     -0.9257814895
C     -0.6473061968     4.4568672076     -1.2858394008
C     -1.0229859864     3.6049006418     -2.368769864
C     -2.3393538772     3.1509301737     -2.3504399274
C     1.6978246596     4.0326298731     -1.6834913693
C     1.7760668379     3.5181414901     2.4175578531
C     2.0057995786     4.1359442365     1.1622850981
C     0.8528199147     4.6669442805     0.5227796978
C     4.0053915579     2.6852591982     0.8759095653
C     3.7451150616     2.0780851361     2.1783254201
C     2.626669752     2.4452689122     2.8872317956
C     2.9317372288     3.5846587238     -1.0806622232
C     3.1199966264     3.6491757434     0.3342307695
C     4.8933345321     -0.7242229764     0.3439333134
C     3.3861883435     2.4722777665     -1.8384234795
C     4.2183980426     1.4826882341     -1.2922279281
C     4.603683688     1.6757094515     0.0672088888
C     4.8214179804     0.5147719439     0.9022820023
C     -0.0168275237     2.7762406926     -3.0157827942
C     -0.3356714041     1.4183034581     -3.4181172087
C     1.3273139172     3.0990603353     -2.7415298849
C     2.3501901337     2.135655987     -2.8183640614
C     2.0868471741     0.8061925191     -3.1836798475
C     3.0986586115     -0.1830409842     -2.8243840531
C     4.1557585431     0.1393758552     -1.8599202688
C     4.6908016143     -0.9159100287     -1.0870877657


