96

 C     -2.9778055246     3.0622355691     -1.1843347853
C     -4.0371287183     2.5272877266     -0.4360881751
C     -4.7976270286     1.3987608033     -0.8947519897
C     -2.5790052338     2.3918532569     -2.4190514012
C     -3.2933460501     1.2558077977     -2.8129087076
C     -4.4131855879     0.7620561173     -2.0744650516
C     -0.453366972     3.577704023     -2.3886173415
C     -1.2149383273     2.5279629972     -2.9059758489
C     0.9283983317     1.4105533453     -3.5180862308
C     -0.5127391084     1.4083082779     -3.5077389514
C     -1.2184601485     0.1488344737     -3.6514587565
C     -2.5922909957     0.1159926653     -3.3682939618
C     1.5804832421     0.1773599823     -3.7305455197
C     1.703115033     2.4661728021     -2.896670878
C     3.0104960561     2.170727911     -2.2975846628
C     0.9779558391     3.5837599721     -2.4281021593
C     3.4404122918     2.9775153242     -1.2222273554
C     -5.2014358998     -0.7784324113     0.1714700187
C     -4.7924885189     -1.4342395783     -1.0579909292
C     -5.1965539511     0.6110982816     0.2531394149
C     -4.3933599844     -0.6851266751     -2.1520610767
C     -2.0371117931     -3.9141925731     -0.9014080426
C     -4.0462799349     -2.623077652     -0.7222326762
C     -2.9656142579     -3.0679277184     -1.533638074
C     -3.2359028206     -1.0781092758     -2.9362921194
C     0.8783122216     -1.0554439547     -3.773884719
C     -0.5159424552     -1.1160425792     -3.628705964
C     -1.0976647507     -2.2999895065     -3.0339526586
C     -2.4897833001     -2.2498104326     -2.6401697376
C     -0.1981140256     -3.2871318076     -2.4311018208
C     -0.7053518815     -4.0872502548     -1.3921171732
C     -4.1380240546     0.4923073483     2.4737043527
C     -4.1376363225     -0.9491720131     2.3843942395
C     -4.6542415484     1.2608444665     1.429750005
C     -4.6675404705     -1.57055056     1.2624113678
C     -3.9742095143     -2.7073644191     0.7091888775
C     -2.8296930966     -3.2581414295     1.3507500403
C     -1.9885002694     -4.0201349337     0.5248003671
C     -2.8001136503     2.8845003924     1.6907021759
C     -2.2542487358     2.068518618     2.7742906779
C     -3.9483806215     2.4394716691     1.0200066398
C     -2.9238220837     0.8932826755     3.1173268081
C     -2.171891652     -0.2972269814     3.4530014902
C     -0.7708480611     -0.3053106763     3.5508456502
C     -0.0701162517     0.9752303608     3.4705626951
C     -0.8428959221     2.1498603202     3.1061174655
C     -0.1658096445     3.289843109     2.653905148
C     2.0851562882     -0.2733464206     3.3549915153
C     1.3616404178     0.9963118194     3.3574151344
C     2.02825551     2.1995735152     2.8810028238
C     1.2441903063     3.3332316511     2.5762132183
C     3.4327796507     -0.2697486608     2.9102410098
C     1.3630296594     -1.5408914303     3.3271783774
C     -0.0868030415     -1.5564872111     3.3323488607
C     2.0393448855     -2.6912687436     2.8481841093
C     -2.2349244895     -2.566676016     2.5032017342
C     -2.9067698176     -1.4302094758     2.9813157756
C     -0.6421078258     -4.3066151126     0.9041381771
C     -0.0745740703     -3.6988826184     2.0561337515
C     -0.8174759885     -2.6781042333     2.770963544
C     1.3252540807     -3.6944580697     2.1104218876
C     -0.7209054508     4.1377753981     1.597734865
C     -1.9269928302     3.7915773393     0.9749103397
C     -2.012273957     3.8799442265     -0.4769398723
C     0.370692911     4.6911172635     0.8715695031
C     0.2949124655     4.7661137835     -0.5263291651
C     -0.8763274454     4.2984560951     -1.1872421683
C     1.598256827     4.250909049     1.4987824079
C     1.4422704788     4.3769620234     -1.3202882962
C     2.6400661619     4.0559954038     -0.7143167197
C     2.7213836053     4.0150161527     0.7368525193
C     3.6088811629     2.9491423058     1.0996436401
C     3.9833433316     0.8737800589     2.2293090497
C     3.3188899154     2.1022891201     2.2112210132
C     4.8289793675     -1.0184061937     1.1908117148
C     4.7570393208     0.4103829334     1.108045054
C     4.6514392604     1.0739359934     -0.1432161069
C     4.1441982131     2.3886490758     -0.1011736432
C     4.7997297165     -1.7673067807     0.023909942
C     3.4076601455     -3.4651167596     1.1223428369
C     3.3638660476     -2.627798142     2.3107098365
C     4.0522834346     -1.4346253147     2.3423618164
C     4.0718934713     -3.0271630941     -0.0116810912
C     0.133666412     -4.4703361952     -0.2795499761
C     1.5284190565     -4.2820812414     -0.2815081405
C     2.1340772568     -4.1067830829     0.9906077826
C     3.0302070733     -1.4950166902     -3.0522955772
C     1.7499240356     -2.0957916389     -3.291706457
C     1.2583434295     -3.1480704611     -2.5107192463
C     3.8598502854     -2.0054641737     -2.0789230885
C     3.4383681365     -3.1481980817     -1.3113138233
C     2.1421637628     -3.6937616469     -1.4635782622
C     4.4685694634     0.2956119039     -1.3604019635
C     3.5876852066     0.8344219675     -2.4086930342
C     2.9169653014     -0.0778789479     -3.238316008
C     4.6241250144     -1.1072454963     -1.2539402666


