96

 C     2.7243453721     0.9171170225     3.0895715935
C     3.873289983     1.1666053307     2.3155072357
C     4.7009690001     0.0960095549     1.8192079623
C     2.3822230857     -0.4657347115     3.4173488538
C     3.2075158245     -1.4930575823     2.9148497233
C     4.3519671864     -1.2121878293     2.0918017177
C     0.1666702904     0.2588866161     4.0783925407
C     1.0125587838     -0.8097123304     3.7656376224
C     0.3992676282     -2.0670251244     3.3773968172
C     1.2502972607     -3.0144674542     2.666565192
C     2.6202040283     -2.7151114391     2.4558757867
C     0.6793748381     -3.9099641065     1.7482812172
C     -1.2469847872     0.1249407788     4.0744638786
C     -1.8836958253     -1.0418793559     3.6151517387
C     -1.0387480958     -2.1705166744     3.2540956564
C     -2.8917835708     -3.0064678901     1.8082815359
C     -1.5964133857     -3.1788625564     2.3536060619
C     -0.7290559398     -3.9874426091     1.5821497604
C     -3.7110313351     -1.8681939853     2.1484064989
C     -3.2287182418     -0.8826371316     3.0366327506
C     -3.7754101982     0.4167381224     2.8544955917
C     5.1862592423     -0.4822835063     -0.514926573
C     4.7282746985     -1.8337920374     -0.2554569493
C     5.1876426401     0.4675375688     0.5064520311
C     4.3897837773     -2.2100121766     1.038065366
C     3.3110311613     -3.121774055     1.2547225413
C     2.5748037056     -3.645577264     0.1604886558
C     1.3039318258     -4.1614857292     0.4707885545
C     4.3880329034     2.1955199509     -1.0445885632
C     4.3473812766     1.1977649204     -2.098267823
C     4.7294991516     1.8191913395     0.2480827825
C     4.6965984178     -0.1105908989     -1.8265165706
C     3.8673662237     -1.1808614837     -2.3208320415
C     3.2010824459     1.4790161103     -2.918560719
C     2.3742179187     0.4520169005     -3.419025459
C     2.7166552497     -0.9309794237     -3.092084699
C     2.7886427143     -3.1224878888     -1.1793690927
C     3.894866981     -2.2536873829     -1.3645306178
C     0.27582148     -4.2573696336     -0.4943077072
C     0.4019998513     -3.6654290327     -1.7785305593
C     1.6724822757     -3.033512529     -2.1060652214
C     1.6865638881     -1.9564042021     -3.0845235919
C     0.491204684     -1.6396835382     -3.7304900436
C     1.3042276939     4.1481176163     -0.4699103254
C     2.5756448396     3.6317802608     -0.1626417602
C     3.3090363365     3.1076751826     -1.2586588627
C     2.615241931     2.701328349     -2.4581065319
C     0.1568175225     -0.2718242732     -4.074779448
C     1.0037975143     0.7964706938     -3.7640311543
C     0.391878035     2.053979244     -3.3743158792
C     1.2449417262     3.0011345317     -2.6655239931
C     0.6765274469     3.896807195     -1.7458479135
C     2.7924973128     3.1085914331     1.1767013909
C     3.8988607552     2.2393622456     1.3591981661
C     0.2784232989     4.2443429252     0.497693715
C     0.4074798029     3.6523692497     1.7815508749
C     1.6785696931     3.0199984391     2.1060518995
C     1.6946169754     1.9428928612     3.0844761039
C     0.5006776142     1.6265692027     3.7332926023
C     -2.1363959254     3.4295136111     1.8069344865
C     -0.8275218311     3.2883684677     2.4629219751
C     -0.7182485521     2.3332583396     3.4939178578
C     -3.2102556989     2.626321989     2.2489252661
C     -3.0141350758     1.591741834     3.2216972007
C     -1.7948478786     1.4440926968     3.8220963868
C     -0.9914180047     4.2583946425     -0.1972685006
C     -3.2034861081     3.3897034427     -0.4577211749
C     -2.1877391741     3.8739818366     0.416352831
C     -1.2567568676     -0.1374185325     -4.0674406692
C     -1.8919846134     1.0296358975     -3.6065974199
C     -1.0458050953     2.1579623784     -3.2475718501
C     -1.6009744645     3.1665022772     -2.345722287
C     -0.7315057515     3.9747641447     -1.5763399137
C     -2.8950930342     2.9945497321     -1.7973098248
C     -4.5425100233     1.5393191854     -1.016846695
C     -4.2288771021     2.5015366339     0.0177502338
C     -4.2259480308     2.1239022688     1.3401878241
C     -4.5588961877     -0.7669890958     -1.6892857576
C     -4.8806070663     0.1974658563     -0.6969125445
C     -1.8044638777     -1.4563794418     -3.8137501661
C     -3.0223434685     -1.6036154168     -3.21042949
C     -3.7823514293     -0.4283649457     -2.841404353
C     -3.2356629566     0.8708356807     -3.0248566437
C     -3.7155270506     1.8565463175     -2.1354789812
C     -2.1418496017     -3.441687752     -1.7977804163
C     -0.8344913103     -3.3010100057     -2.4569135308
C     -0.7273663785     -2.3459208684     -3.4881741905
C     -3.2164838009     -2.6381378379     -2.2371848196
C     -4.2297323032     -2.5130081489     -0.0035824544
C     -3.2035107714     -3.4015144951     0.4694388722
C     -2.1900037521     -3.8861330621     -0.4070694559
C     -0.9923684465     -4.2709605222     0.2036789606
C     -4.229829851     -2.1353735302     -1.3260257496
C     -4.5546044862     0.7556294681     1.70423398
C     -4.8789923113     -0.208719096     0.7126362534
C     -4.5405846313     -1.550691759     1.0317624408


