96

 C     3.5665892258     2.4637624848     1.5998744107
C     3.9884178692     1.1490971083     1.8391486724
C     4.7261601519     0.5426806306     0.7863481345
C     4.8928348518     -0.8722313624     0.7135190539
C     4.3183570761     -1.6515139431     1.7071258947
C     3.486907602     -1.0513435089     2.7234731477
C     3.2205443589     0.3299053468     2.7669730057
C     2.4453998089     3.0210358427     2.2921378818
C     1.538210509     2.1829336435     3.0092791654
C     4.1802032085     -2.4649161178     -0.996545502
C     3.6438897842     -3.331223099     0.0449887196
C     4.7982062128     -1.2689998777     -0.6745414141
C     3.7219862631     -2.9308782383     1.3649664345
C     2.5951507201     -3.1536154421     2.2225480604
C     1.4420069892     -3.8405668204     1.7657775278
C     0.2866353301     -3.6289256777     2.535080409
C     -0.2479013799     3.7724816306     2.3934800452
C     0.1332182274     2.5799565145     3.0625535088
C     1.9172501468     0.8062453619     3.257958373
C     -0.5143148443     0.2533184274     3.6982491254
C     0.8970680316     -0.1412963515     3.6340365149
C     1.2105778652     -1.5609531427     3.553996027
C     2.4654529692     -1.9919658851     3.0629739755
C     0.185465306     -2.5232697051     3.4449246368
C     1.8290679495     -1.4162850753     -3.6282192419
C     3.0329499368     -1.3793155476     -2.900544624
C     3.3156641608     -2.5374098471     -2.129873202
C     2.2615161742     -3.4740508331     -1.8087902462
C     -0.1988877733     -3.8255817525     -1.6477057772
C     0.9757917125     -3.4012420291     -2.4002373674
C     0.8501631895     -2.4536077869     -3.4388871971
C     -2.6174375255     -3.5257462552     -1.2791890563
C     -1.5053921796     -3.4262672451     -2.1508142506
C     1.3025606131     -4.1764110959     0.3465295253
C     2.4282881893     -3.9343006661     -0.4668541753
C     -1.0113469066     -3.8842420098     2.017841225
C     -1.1865888862     -4.1608005742     0.6269491132
C     -0.0313689849     -4.202232536     -0.2595979383
C     -2.4570523428     -3.8482030181     0.0863177126
C     3.56674943     -0.0790517351     -2.5162043134
C     4.5023640719     -0.0711351501     -1.4434866368
C     1.1262331146     -0.2270491568     -3.949260629
C     1.5291119952     1.0368518431     -3.488156969
C     2.8037471744     1.1356098409     -2.7857105956
C     3.0753747921     2.3308947076     -2.0084719985
C     2.1333272233     3.3836480728     -2.0416711724
C     -0.272484635     -0.5528466332     -4.1145766107
C     -2.5553865957     -0.176950648     -3.5479933702
C     -1.2927018307     0.3792255471     -3.8508841791
C     -0.9391741878     1.713542252     -3.3914615536
C     0.4788008021     2.0433755841     -3.317456872
C     0.8395534522     3.2221641436     -2.6603130392
C     -1.6083904001     -2.4465189669     -3.2259665925
C     -0.4319288357     -1.9355226847     -3.806682356
C     -2.7255592899     -1.5628439594     -3.2758586283
C     3.9386723327     2.2560465146     -0.8367669995
C     4.5960326624     1.0453074121     -0.5645281333
C     1.9756705634     4.304502989     -0.9475744827
C     2.6860488182     4.1066907026     0.23409753
C     3.6581254408     3.0705050379     0.2938305537
C     0.5818140244     4.6959000341     -0.8894521124
C     1.9887624292     4.135267371     1.5105750937
C     0.6649208361     4.4944671358     1.5580461959
C     -0.0388601035     4.860059344     0.3349576464
C     -1.4071830332     4.4757946368     0.4870392965
C     -3.3185123485     3.2513815829     -0.2477870878
C     -2.1565153869     3.9575340182     -0.6027659829
C     -3.5190905307     0.570750523     -2.7720767406
C     -3.2037207193     1.8687751125     -2.3083176558
C     -1.9062565297     2.4730746263     -2.6365213772
C     -1.461930966     3.6091539843     -1.8451501296
C     -0.1216697997     4.0169351085     -1.9603272882
C     -3.8978174563     2.2643791415     -1.1353734376
C     -4.431680756     1.7112145107     1.0355011751
C     -3.5900909431     2.8692973146     1.0936616925
C     -2.5762728883     2.9981529462     2.0946029438
C     -1.5540322019     3.8986528781     1.7967456189
C     -4.2967368869     0.745657478     1.9960934261
C     -4.3139111519     -0.3454191099     -2.0242679617
C     -4.7837035035     -0.0278808161     -0.7221539603
C     -4.6457702664     1.3346811596     -0.3521829482
C     -4.2600884011     -2.3545495082     -0.030687877
C     -3.7634057168     -2.6349745469     -1.3727029654
C     -3.8171406612     -1.671224527     -2.341431579
C     -4.5114072621     -0.647665218     1.6704035279
C     -4.7472102611     -1.0619723141     0.3197069125
C     -1.9417450914     -3.0595159287     2.7343251425
C     -3.6901015305     -1.4033691766     2.5431553632
C     -3.1721665183     -2.6612773518     2.160376712
C     -3.4791736365     -3.1316777479     0.8599686682
C     -2.2829826575     1.8886854703     2.9840371371
C     -0.9031600293     1.6021227319     3.371872884
C     -3.2309057535     0.8391815141     2.9896606506
C     -2.8657525785     -0.47280517     3.3273864707
C     -1.5390215405     -0.7919874157     3.7017484412
C     -1.1796398883     -2.1567170516     3.5443408446


