96

 C     -0.4987083893     -4.4082544501     0.5184700241
C     -1.5424030113     -3.986193656     -0.3201477279
C     -2.7738485969     -3.485086236     0.3029551946
C     -0.5137446476     -4.1173420308     1.9347270827
C     -1.5974350666     -3.4891514834     2.4867847581
C     -2.7775036879     -3.2955337652     1.7057649345
C     0.7975386947     -3.7660361875     2.3611800723
C     -3.6996647641     -2.6748502817     -0.4791385663
C     -3.3936456874     -2.4273673373     -1.8337304307
C     -3.4752099307     -2.186727553     2.3096394088
C     -4.3523115991     -1.4311468469     1.5764000948
C     -4.5214398981     -1.7015021504     0.1607310956
C     -2.5912733715     -1.5508081214     3.2557696859
C     -4.4592099281     -0.0289510042     1.8173095416
C     -3.5577692945     0.6359851298     2.6824272055
C     -2.5446584311     -0.1613375991     3.3935588886
C     3.2876786116     -2.5433776908     2.1300636154
C     2.3224116123     -1.9429136929     3.0019442515
C     1.0350849034     -2.5900372764     3.1315242063
C     -0.1208301575     -1.8191369583     3.5830310173
C     -1.40434376     -2.3605538794     3.3648069297
C     1.2682495509     0.2678345266     3.6678689471
C     -0.0235235503     -0.3787305991     3.80548446
C     -1.2515197098     0.4107167559     3.7684682741
C     -1.1325410222     1.8063559218     3.6534580738
C     -4.8796909639     0.559163236     0.5592541531
C     -4.8654114809     -0.4712640308     -0.471089523
C     -4.4485179492     -0.1703577581     -1.7964905314
C     -3.8015107691     -1.2291180043     -2.4918525132
C     -4.542632354     1.8520137719     0.2489334512
C     -3.7811075932     2.6242280463     1.1885525411
C     -2.1225921477     2.6019641449     2.9222026327
C     -3.2876554177     2.0314938657     2.3914497974
C     -4.1355715545     2.202117975     -1.1016856019
C     -4.0797984909     1.2158542614     -2.1251172279
C     -3.1126273259     1.4435544828     -3.1312290959
C     -2.4891391069     0.3391583518     -3.833430345
C     -2.8159850143     -0.956468373     -3.5156154007
C     -3.1448206429     3.2143695792     -0.9809299599
C     0.6366535894     4.417263653     0.5146970617
C     -0.6478465795     4.2499903155     -0.0398521345
C     -0.7536657255     3.7960737141     -1.4176949685
C     -2.0495799516     3.3110180094     -1.8821108587
C     -2.1160017086     2.4592477359     -3.0028405251
C     -2.9639705564     3.5143454885     0.4274698887
C     -1.4375403594     3.658062472     2.263725266
C     -1.7442551683     4.0023756639     0.907408385
C     -1.1639589658     -3.5718985512     -1.6659998265
C     -2.1296960826     -2.8618722329     -2.4124325732
C     -1.7780491512     -1.9525313533     -3.4455372363
C     -1.1272901136     0.6767839548     -4.1360638323
C     -0.092897889     -0.2900503497     -4.123227192
C     -0.4270476656     -1.6539066002     -3.7257447323
C     1.9109398324     -2.069597093     -3.2395952627
C     0.5720190354     -2.5035101614     -3.117658137
C     0.2279847232     -3.4531206642     -2.0677585113
C     1.2715456523     -3.9037906768     -1.1584069301
C     0.869634153     -4.3955705221     0.0978893813
C     2.7418800903     1.896011545     -2.9926325544
C     1.4807110314     1.5774991261     -3.5639873794
C     1.2437470053     0.2042348738     -3.9704219956
C     2.2464390823     -0.7702573552     -3.6972907779
C     1.8141781673     4.1282410069     -0.2085978479
C     1.7430416847     3.6245023093     -1.528642727
C     0.4455953073     3.4153615518     -2.1390157056
C     0.3618831004     2.4361108369     -3.2265333635
C     -0.9033230757     1.9948125848     -3.6393300632
C     2.8631804602     2.872711882     -1.9849771525
C     2.9522336237     -2.5203197384     -2.3253647659
C     2.6423474369     -3.395449828     -1.2717027958
C     3.4614789759     -3.2592916259     -0.1098500992
C     2.8997236138     -3.5551068824     1.1922647287
C     1.6702301678     -4.1354944413     1.2822153922
C     3.9268564827     -1.4923107621     -2.2009792635
C     4.5786649631     -1.2176214499     -0.9689321474
C     4.3687066215     -2.1782369883     0.0540624664
C     4.4487263074     1.2125488742     -1.5127321801
C     3.7449859269     0.8876757235     -2.7415144989
C     3.4923571564     -0.4147101935     -3.0737632871
C     4.8010455237     0.5312921112     0.7855452683
C     4.8299324643     0.1863917747     -0.5946655987
C     2.8276650292     3.6452772421     0.7270475346
C     4.2871941509     1.7792434105     1.2316616982
C     3.8542652691     2.769230025     0.307761214
C     3.9340030361     2.4576762774     -1.0725220371
C     -0.0804796333     3.6189810727     2.7142668902
C     3.5406831496     1.553402918     2.4577476498
C     2.4540719251     2.3507013927     2.8191333199
C     2.2230195735     3.5142251008     2.0022623852
C     0.9146554324     4.0842383758     1.9071945033
C     4.2793816231     -1.7676594662     1.4577153808
C     4.4405373867     -0.4519962013     1.7932778982
C     3.5684164702     0.1553924591     2.7632233038
C     2.4424174649     -0.5280380997     3.2957954732
C     1.3324095805     1.710286511     3.5071155593
C     0.1208622983     2.434948162     3.5406948986


