96

 C     -2.7524811413     -3.0285901675     2.0283618851
C     -3.5369760187     -1.8808931738     2.2408454345
C     -4.5462392388     -1.6202007974     1.2644591876
C     -5.0737761496     -0.3046396727     1.0862837889
C     -4.6406035958     0.7152672201     1.9149023238
C     -3.5791338427     0.4686461388     2.8732470348
C     -2.9445950851     -0.7823386272     3.0000109452
C     -1.4337283863     -3.1547302662     2.6152446479
C     -0.7714365765     -2.0622423456     3.2148447222
C     -4.9911582474     1.1961490131     -0.8573147862
C     -4.6198409671     2.2900251177     0.021062316
C     -5.2384444453     -0.0636770388     -0.3352503933
C     -4.4505319796     2.0433665616     1.381852434
C     -3.3423816971     2.6462182271     2.0639484688
C     -2.4601095397     3.528899268     1.3988832384
C     -1.1971840617     3.683775828     1.9990040865
C     1.3629157514     -3.1392546395     2.601262697
C     0.695863617     -2.059405382     3.2180300533
C     -1.5193839269     -0.8245697061     3.3965603814
C     0.6991104858     0.3857020835     3.6054554712
C     -0.7832628452     0.3852222364     3.5955687717
C     -1.4768912088     1.6521576581     3.3895430248
C     -2.8315562845     1.6744034414     3.0069567319
C     -0.7512541092     2.8082895682     3.019637158
C     -2.3764420505     2.7691656421     -2.7062757775
C     -4.2332552284     1.3235742519     -2.0820291849
C     -3.5403191787     2.5830376018     -2.0063014345
C     -2.5636327418     3.7333343803     -0.0377312119
C     -3.6718163078     3.1320590242     -0.681166777
C     -1.2960273335     3.5206536852     -2.1353097022
C     -1.3219995003     3.9535267496     -0.8047932785
C     -1.8171240061     1.6848809263     -3.4637059696
C     -2.3603018973     0.3962964467     -3.4148052487
C     -3.6430333599     0.2016335899     -2.7191762013
C     -3.9818962513     -1.121218563     -2.2053583753
C     -4.7786973376     -1.2330672308     -1.0318269257
C     -3.0860843431     -2.1933245087     -2.4805730687
C     -0.3956039802     1.905658357     -3.5311519416
C     0.5294158279     0.8542557429     -3.7085805075
C     0.0255837043     -0.4888514528     -3.7191478829
C     -1.4133159956     -0.7130393305     -3.5744122289
C     -1.830126091     -1.9775469783     -3.1628547066
C     2.3187244315     -1.2571074741     -3.3248638607
C     0.9503613895     -1.5598043464     -3.4020562756
C     3.4870095343     2.3950698109     -1.9711986381
C     2.2512730825     2.3575084168     -2.6430639011
C     1.9104344002     1.1629813366     -3.4147454426
C     2.8110096624     0.0878541327     -3.4045709807
C     -0.0216860405     4.0900193453     1.2582898847
C     -0.0188318968     4.1075329206     -0.1388630871
C     2.4702193299     3.6058838181     -0.0550685196
C     1.2500662114     3.7865232371     -0.8226243722
C     1.190830776     3.1932363868     -2.1286005662
C     -0.0773686291     3.0322615137     -2.7322812239
C     3.590589775     3.0071303961     -0.6818953513
C     -2.8922020807     -3.2644855038     -1.5726609366
C     -3.5206858838     -3.2547478972     -0.2970074711
C     -4.4613458714     -2.2329216208     -0.0369739149
C     -2.7665227478     -3.7435808295     0.8013126894
C     0.5069889408     -2.7626081679     -2.7328163214
C     -0.8910651868     -2.9796075927     -2.7061926494
C     -1.5273872438     -3.7480403963     -1.7175848163
C     1.3413030263     -3.427450903     -1.7637691712
C     -0.778651798     -4.2737267788     -0.6294503922
C     -1.4513517068     -4.3364007281     0.6189610488
C     3.2194011105     -2.0207303546     -2.5077491829
C     2.7304847985     -3.0010937232     -1.6218195579
C     0.6831349532     -4.145179314     -0.672813532
C     1.3693535112     -4.2228511628     0.5587424133
C     0.6567501834     -4.0799299365     1.7932531821
C     -0.7197744003     -4.1012666521     1.8176150936
C     5.0803927626     -0.3026320068     1.1780655199
C     4.5008774674     -1.6148788141     1.3164287047
C     3.4669540155     -1.8626333076     2.2688459917
C     2.6761027487     -2.9838224909     2.0137918009
C     4.5991691534     0.7148915741     1.9832494451
C     2.6665701738     -3.625566582     0.7441652665
C     3.4104244813     -3.1162285864     -0.3338657591
C     4.4546603245     -2.2184228849     0.0167477943
C     4.3390579749     -1.1584616618     -2.1655358075
C     5.3664391537     -0.0593717178     -0.2180105296
C     4.965350785     -1.2549427786     -0.9333761923
C     4.4000412463     2.0339871864     1.4294544284
C     4.5980700892     2.266079653     0.0715550654
C     5.1072167615     1.2043011479     -0.764039807
C     4.4304610252     1.2978411081     -2.0357919941
C     4.0774387983     0.1483589805     -2.7253556887
C     1.1354161147     3.6675614403     1.999286055
C     3.2722443318     2.6294424427     2.0854194157
C     2.3877401074     3.4864500994     1.3931472126
C     2.8711064673     -0.7717600854     3.036985806
C     1.4401512322     -0.8206013184     3.4131726083
C     3.5130674183     0.4722147206     2.922851843
C     2.757627181     1.674741887     3.0358371133
C     1.3955256216     1.6508985901     3.4049247558
C     0.6757584979     2.8024165925     3.025903605


