96

 C     2.2501286977     -3.4300940598     1.9596443191
C     0.9400130355     -3.8121749748     1.6268706994
C     -0.6814904054     -4.2045143018     -0.27221359
C     -1.7172040324     -4.104024072     0.6706513041
C     -3.0396881997     -3.7075576195     0.3069261181
C     -3.3146100975     -3.3835651085     -1.0184638251
C     3.30766273     -3.3972004457     0.9940671623
C     3.0317411145     -3.7158375645     -0.3323704852
C     1.7080191574     -4.1069902002     -0.6974072083
C     0.6720025896     -4.2074588188     0.2451405496
C     -0.9482603458     -3.8037861676     -1.6526226555
C     -2.2571717057     -3.4165007121     -1.9841246353
C     -4.3910402067     -1.8236296992     1.0838568447
C     -4.6567014683     -1.4597024259     -0.2952453241
C     -3.5879136     -2.9119820239     1.3811651221
C     -4.1404603819     -2.2329745199     -1.3184609314
C     -3.6144663174     -1.5844829741     -2.4867765728
C     -3.6318158684     -0.1659791856     -2.6107499013
C     -2.7100577552     0.3620713751     -3.5377072284
C     1.441781946     -3.5804453923     -2.0287177585
C     0.1497253531     -3.3009778097     -2.4749669428
C     -0.033137809     -2.2075760721     -3.4131818727
C     -1.3966438774     -1.7375762082     -3.6221792523
C     -2.4727587497     -2.3391029592     -2.9202332414
C     -1.6269243915     -0.4263149785     -4.0650784653
C     -2.9630411335     0.7784839768     3.2858276633
C     -3.3374038679     -0.5322032459     2.9210550708
C     -4.2553772029     -0.6217950814     1.8510736276
C     -4.4328794691     0.4909975112     0.9438890313
C     -3.3581678327     2.5438051292     0.0467278627
C     -3.8239943307     1.746086885     1.1714688379
C     -3.2423987249     1.9085191662     2.4493749358
C     -1.6641378775     4.1319998874     -0.7605261976
C     -2.4016863387     3.6057325727     0.3277297557
C     -4.0681937589     0.6657998025     -1.491763205
C     -4.6122687527     -0.014403509     -0.3784085384
C     -2.2656670562     1.7024637627     -3.457291067
C     -2.635596848     2.5260841947     -2.3497371953
C     -3.4768544233     1.992544372     -1.2928715731
C     -1.7537822724     3.5927245976     -2.055800581
C     -2.397618296     -1.627431098     3.1759985661
C     -2.5716685475     -2.7987955742     2.4106207723
C     -1.751400237     1.0350602695     3.9823318485
C     -0.7967891536     0.0058513897     4.2086872359
C     -1.0771180598     -1.3504888369     3.7220262175
C     0.5473900353     0.4319301739     4.3674517841
C     -1.3409502898     2.3911752005     3.685100007
C     0.4489513064     3.6961259611     2.7078364707
C     0.0286243852     2.7399358455     3.6685105528
C     0.9668061206     1.7635817654     4.0639173953
C     -1.8106117486     3.7547736316     1.6608725962
C     -2.238258724     2.9030905675     2.6978364083
C     -0.4596544491     4.2385927619     1.7801608974
C     1.6291422974     -0.4451395022     4.0507653602
C     1.3947626941     -1.7539940063     3.6033717989
C     0.0297563994     -2.219137499     3.3928176226
C     -0.1564316956     -3.3087566315     2.4509260465
C     -1.4493627334     -3.5827559651     2.0037496764
C     2.4690873047     -2.3564810758     2.8992927534
C     2.7148660401     0.3417601492     3.5262335437
C     3.6349548343     -0.1859867137     2.5973201048
C     3.6130908884     -1.6040083217     2.4684812035
C     4.6556650077     -1.475045968     0.2773606161
C     4.1370953229     -2.2501607479     1.2979297055
C     1.7684784162     3.5803310782     2.0554675555
C     2.6470339738     2.5098986866     2.3457008382
C     2.2746892474     1.6836380135     3.4503353114
C     3.4866378559     1.9773805569     1.2869942765
C     4.0737767621     0.6482643152     1.4812910042
C     4.6156818069     -0.0298762885     0.3653807209
C     1.6805045329     4.1243502702     0.7621901187
C     2.4164325289     3.5994292563     -0.3280369649
C     3.3695526879     2.5336699545     -0.0507931228
C     3.251818103     1.9069964724     -2.4555728399
C     3.8328203075     1.738320254     -1.1782853308
C     4.4378678146     0.4805475495     -0.9549454984
C     0.4763910436     4.2431927616     -1.7781276113
C     -0.2913889686     4.5995294584     -0.6044800126
C     0.309241225     4.5966927856     0.6077633741
C     2.2508268633     2.9054057733     -2.7005751954
C     1.8257909177     3.75487625     -1.6605633527
C     -0.9579245426     1.7805025048     -4.0705100176
C     1.3518357131     2.3996041403     -3.6894023816
C     -0.0165764259     2.752467156     -3.6716622285
C     -0.4339322381     3.7066403397     -2.7076179429
C     2.5665449118     -2.7985500517     -2.4329495706
C     2.3960494698     -1.6240135848     -3.1942965603
C     1.0764183635     -1.3411579647     -3.7393766473
C     1.7582130734     1.0431557585     -3.9914352842
C     0.8002053057     0.0176809066     -4.2213817782
C     -0.5424936519     0.4483737471     -4.3788098714
C     4.2569829382     -0.6286842137     -1.8661215379
C     4.3889168418     -1.8334651087     -1.1030188316
C     3.5824130678     -2.9183443641     -1.4039766739
C     2.9688276468     0.7805051405     -3.2960319475
C     3.3392061839     -0.5325804323     -2.9356118375


