96

 C     -0.9826642541     -2.3139494643     3.5837060867
C     -2.1087685572     -1.4820591238     3.3946892368
C     -2.919867229     0.8490805923     3.0812824015
C     -4.0026946449     0.314030863     2.309817591
C     -4.5573890599     1.0391785618     1.1754063807
C     -4.1110213576     2.292595931     0.8674472983
C     -0.5916727898     0.4457570583     3.9570521498
C     -1.9363655619     -0.0591697738     3.6166633456
C     -0.3467542614     1.8107583946     3.8389524878
C     -1.3110196583     2.6971678748     3.2433189576
C     -2.5701547736     2.2379289505     2.8334405566
C     -3.1410932294     2.9306270329     1.7236248961
C     3.1408319379     -2.9268476032     1.7491614685
C     2.5681714129     -2.22634863     2.8531776425
C     1.3083972215     -2.6826950275     3.2643234654
C     0.3432120151     -1.7921128943     3.8521901707
C     1.9331760897     0.0762121182     3.6191998158
C     0.5879527237     -0.4263112707     3.9610452771
C     -3.2633404502     1.9148835996     -2.6959056065
C     -4.1040169236     1.7593702008     -1.5739225071
C     -3.8736701737     2.6813484992     -0.5099647275
C     -2.7564325929     3.5552412032     -0.4916296337
C     1.3101452433     4.2562042633     0.4996766255
C     -0.0352745028     4.2488910791     0.1295830083
C     -0.3920555442     3.8620064739     -1.2431337218
C     -1.7846526381     3.5629845867     -1.5265902995
C     -2.1146981599     2.7815736687     -2.6630845869
C     -2.3463014615     3.7568582104     0.8925331116
C     -0.5867319465     3.6856693957     2.5011630527
C     -1.0207234535     4.0948955292     1.2118797664
C     -4.6417199074     0.4224043845     -1.2567869671
C     -4.8918610039     0.0984024562     0.1202707462
C     -2.915141553     0.7884153913     -3.5300288132
C     -3.4061141683     -0.4694476972     -3.2295425702
C     -4.2992563843     -0.6575212865     -2.1064379549
C     -1.5706712975     0.9333411179     -3.9752123574
C     -2.5403297727     -1.6034912233     -3.3252564551
C     -1.1951959976     -1.4879922022     -3.709211349
C     -0.7044597896     -0.165495389     -4.0942146427
C     2.547958475     1.5715603444     -3.3324874047
C     1.2034228864     1.4533494019     -3.7177108999
C     0.7132793153     0.1281682601     -4.0941458769
C     1.5792990566     -0.96979656     -3.966050864
C     2.3423211631     3.8415874333     -0.4022932894
C     2.021261488     3.3896030468     -1.7127793277
C     0.6296623352     3.3669704466     -2.1319859453
C     0.2651072287     2.4520032865     -3.2177355611
C     -1.0841947667     2.2078416314     -3.4651542415
C     2.9524398692     2.5245396547     -2.3288364558
C     -4.0432819307     -1.9714549857     -1.5829229446
C     -4.2134374802     -2.2541981072     -0.2016308326
C     -4.6445269395     -1.189617896     0.6379540787
C     -3.390190041     -3.2464232997     0.3723572646
C     -2.9463800816     -2.5493751043     -2.3155453135
C     1.0920217081     -2.2406717502     -3.4477793176
C     -0.2576648687     -2.4830907385     -3.2007471144
C     -0.6239157932     -3.3903818435     -2.1091429325
C     -2.0161657521     -3.4100671151     -1.6919555392
C     -2.3392674     -3.8528026134     -0.3788174005
C     -1.7424980298     -3.8788609254     1.8626210655
C     -2.9613623993     -3.1698385976     1.7597470483
C     -3.1723422385     -1.9852941957     2.5249374099
C     -4.091749679     -1.0506922302     1.9947386339
C     -0.8101615945     -3.5018871069     2.8148970044
C     0.5852600077     -3.676407357     2.5280273452
C     2.3473301209     -3.7589234035     0.9226801323
C     1.0212559674     -4.0947076196     1.2423379622
C     2.1212715857     -2.8087302794     -2.640081063
C     1.7894514916     -3.5821105202     -1.4986210589
C     0.396413534     -3.8791343926     -1.2152334086
C     0.0374925717     -4.2563341803     0.1596193579
C     -1.3085001132     -4.2610459252     0.5276590362
C     2.7596189084     -3.5670682721     -0.4622292863
C     3.2699692817     -1.9422877209     -2.6772234158
C     4.1088981034     -1.7788649488     -1.5550560514
C     3.8768895224     -2.6933206477     -0.4849853102
C     4.3049808204     0.634215878     -2.1042926534
C     3.4135875956     0.4382239712     -3.227432748
C     2.9230767709     -0.8217292985     -3.519808777
C     4.8941101993     -0.1059887144     0.1286108541
C     4.6461143864     -0.4396930283     -1.246514873
C     3.3920717548     3.2405269436     0.3547738297
C     4.645981418     1.1856487035     0.6368164173
C     4.2162052251     2.2442824642     -0.2109233007
C     4.0481972825     1.9518048398     -1.5904503861
C     0.8082407822     3.5131852044     2.7914297158
C     4.0910915818     1.0562885559     1.9936840133
C     3.1708640462     1.9946007318     2.5158495583
C     2.9610840964     3.1737225783     1.7420012229
C     1.7420619988     3.8834457874     1.837973846
C     4.1120979358     -2.2948655373     0.8900195052
C     4.5579895724     -1.0393051236     1.1898308169
C     4.0015362162     -0.3061804482     2.3182368833
C     2.9175043569     -0.8357855382     3.0917660565
C     2.1059340516     1.4975021681     3.3874691499
C     0.9795408498     2.3306988416     3.5688620386


