96

 C     2.6820809765     -3.2605450942     1.8614704877
C     1.3794701417     -3.7345082056     2.0131892093
C     0.8792248415     -4.5208763722     0.9329794431
C     -0.530740662     -4.7043309464     0.7355123333
C     -1.4012331423     -4.1686132172     1.6458256208
C     3.1296487172     -2.0569073229     2.5271303328
C     2.1947917823     -1.163528526     3.0936235863
C     0.813008651     -1.6230678225     3.2631454402
C     0.4563095353     -2.9604953446     2.8275028965
C     -0.9100039165     -3.2877890384     2.7010232817
C     0.1190120317     0.7679109141     3.5181823612
C     -0.2231154879     -0.6554360886     3.5049109944
C     -1.6253334741     -1.0316073282     3.3530260782
C     -1.9222915603     -2.3465450836     2.9565664465
C     -0.933972606     1.6843132666     3.5050471672
C     2.506269912     0.2653638762     3.0425005237
C     3.7356070053     0.6780046665     2.4681045593
C     1.4513254056     1.2423848142     3.1520202032
C     -4.0498193012     -2.7468028632     -0.5161826655
C     -3.0764566458     -3.704810616     -0.1506895216
C     -2.7056222712     -3.7109155981     1.2305212496
C     -3.0716572063     -2.6478255197     2.0975035266
C     -3.9814723091     -1.6479913009     1.7164595362
C     -4.5536429285     -1.788412612     0.4158593958
C     -4.9353722088     0.6101056159     0.3016916971
C     -4.9332437841     -0.6067505988     -0.3220949934
C     -2.31436475     1.2957557256     3.3448919327
C     -2.6781562183     -0.0419162008     3.1602447873
C     -3.8490856465     -0.3320652596     2.3286564681
C     -4.4828920643     0.7495004849     1.673845394
C     -2.065914377     -4.1057626272     -1.1424550549
C     -0.8316718832     -4.6368123027     -0.6868827156
C     -4.005211628     -2.0902824459     -1.8189605489
C     -2.9666650043     -2.3691464548     -2.6832491823
C     -2.0094749578     -3.4013995112     -2.3722207656
C     -4.4708692944     -0.7462448147     -1.6909379967
C     -2.2904175025     -1.2929732576     -3.3462493708
C     -2.65525159     0.0447755753     -3.164240794
C     -3.8321103722     0.3351799049     -2.3411462441
C     -3.0558820717     2.6507706199     -2.1043769662
C     -3.9686424001     1.6511341376     -1.729924076
C     -4.5501847247     1.7916828422     -0.4334984945
C     -0.7566198648     -2.9995700238     -2.9354707187
C     0.4780606603     -3.4184148495     -2.4055785483
C     0.4013543702     -4.3540040972     -1.3365104526
C     1.6372019858     -2.5572999167     -2.5524701948
C     2.8089383652     -2.8500919488     -1.7401978605
C     3.8628182834     -1.9331766396     -1.7453457983
C     -0.908986999     -1.6818296668     -3.4964135691
C     0.1442596619     -0.7656526689     -3.501933001
C     1.4737909657     -1.2404113935     -3.1261444189
C     2.2173181772     1.1653502413     -3.0623752242
C     2.5281186037     -0.2636096543     -3.0090006506
C     3.7531798147     -0.6765055956     -2.4257221793
C     3.1482370061     2.0585375776     -2.4891297774
C     4.3102176276     1.5974728575     -1.7786001144
C     4.6351930855     0.2581208325     -1.7714940773
C     0.4773378061     2.9626844718     -2.8088340959
C     -1.9003925339     2.3492416029     -2.9551001021
C     -1.6008517687     1.0342379792     -3.3493999889
C     -0.1976538613     0.6577653204     -3.4911386334
C     0.8368980935     1.6251819144     -3.2418850774
C     -0.8897849775     3.2902687271     -2.6922400558
C     2.6711910427     -3.7097638261     -0.560853314
C     1.4661240099     -4.3947575944     -0.354489212
C     4.7286514181     -1.7350138804     -0.5851530405
C     4.4125449941     -2.3708610289     0.6042985718
C     3.3882847252     -3.3703125278     0.6186891273
C     5.1625521911     -0.3609418631     -0.5755051689
C     4.2968394275     -1.5960864938     1.82502929
C     4.6221378685     -0.2568018223     1.820275038
C     5.158271129     0.3621511529     0.6281356555
C     3.393328441     3.3718894785     -0.5788612854
C     4.4172452524     2.3722256     -0.5570639427
C     4.7245997628     1.7363128819     0.6346458594
C     1.464389296     4.396731373     0.380386414
C     2.6677868165     3.7114850643     0.5954611032
C     -1.3884506583     4.1711958643     -1.6406208547
C     -0.5244600367     4.7067328377     -0.7240318579
C     0.88685647     4.5229770341     -0.9112921661
C     1.3947404024     3.736505002     -1.9878601829
C     2.6961170697     3.262270036     -1.8267262915
C     -4.0529206311     2.7499654765     0.5021648678
C     -3.0767348946     3.7077621548     0.1437233634
C     -2.6959090073     3.7137832487     -1.2347669703
C     -2.0259280171     3.4041224844     2.3729215672
C     -2.985561276     2.3720743207     2.6770152357
C     -4.0178887471     2.093438357     1.8052353251
C     -0.8356939133     4.6392805294     0.6961511246
C     -2.0733141439     4.1084968981     1.1427813101
C     3.8504332988     1.9346537948     1.7885421024
C     2.79681154     2.8517854711     1.7757739267
C     1.6191649485     2.5592395459     2.5795482181
C     0.3925342139     4.3562065007     1.354682333
C     0.4613029468     3.4205985956     2.4242777386
C     -0.777267452     3.0020201943     2.9452250911


