96

 C     -0.9248544517     0.9358743021     3.8303033043
C     0.1716926104     0.0819572792     3.7346986627
C     2.5634706333     -0.2730268408     3.0972673404
C     2.3131435312     -1.6571459938     3.2360071314
C     3.0611224734     -2.6489344447     2.5212790322
C     4.0720188431     -2.2453818513     1.6635758145
C     -0.8373821911     2.304207877     3.4987598679
C     0.3559812334     2.8519413597     2.9796620023
C     1.5501897809     2.0238873951     2.9518867868
C     1.4658879213     0.6469073496     3.3743267944
C     2.5438894818     3.6117462794     1.3298945318
C     2.6951260535     2.4550264178     2.1337260046
C     3.7363821166     1.5064691721     1.7637772205
C     3.6938515023     0.1445056647     2.2820945274
C     4.4275055682     -0.8642608247     1.5980922411
C     1.2638676739     4.2717721146     1.1998646159
C     0.1943246942     3.9559691025     2.0417070718
C     -1.1002603667     4.2713851528     1.5342084102
C     2.2585660355     -4.2816316228     0.874611935
C     3.2109065107     -3.7494776437     -0.0809589395
C     2.1591351193     -3.715187085     2.1352550676
C     4.1279183701     -2.7976609432     0.3137416744
C     4.8703536052     0.6277649451     -0.2626597285
C     4.8707334182     -0.6277885585     0.2422757559
C     4.4655426642     -1.7416477598     -0.583610763
C     4.4691174877     1.741971586     0.5646836738
C     -1.3026530702     -4.447200525     -0.1347143909
C     -0.225585671     -4.4817002094     0.7649625127
C     1.0582721136     -4.6210592953     0.1686804193
C     1.2558521241     -4.2687080478     -1.2071807469
C     0.1835375341     -3.951987546     -2.0451432589
C     -1.1094694491     -4.266298162     -1.5329576991
C     -2.171235207     -2.6999780244     -3.0356301475
C     -2.2958008337     -3.6341181926     -2.0395880387
C     4.4224254923     0.8646188327     -1.6168646534
C     3.6854286939     -0.1435161517     -2.2982032039
C     3.7286727717     -1.5055172738     -1.7800398134
C     2.6852672916     -2.4531798149     -2.1462176654
C     2.5359565614     -3.6097747508     -1.3418448869
C     1.4530913591     -0.6440068432     -3.3823616636
C     1.5377462047     -2.0210656006     -2.9602259492
C     0.3427410786     -2.8480947017     -2.9836772176
C     -0.8520302913     -2.2993403899     -3.498451637
C     -0.3472117112     -3.7735254591     2.0430955193
C     0.8548144719     -3.416701023     2.6853326984
C     -2.5715169075     -3.8538537017     0.234019163
C     -2.7024146967     -3.151728748     1.4608448612
C     -1.5369921576     -3.0005509194     2.339019069
C     -3.742656075     -2.1994272345     1.496735957
C     -4.4709385146     -1.809422378     0.3338827093
C     -4.1108460881     -2.3009048159     -0.9481187452
C     -3.2311970826     -3.4130229486     -0.9489552186
C     -3.6828858814     -1.0712054634     2.3990395697
C     -2.533739239     -0.8672919749     3.1937301808
C     -1.4319232542     -1.8151272816     3.152218808
C     -0.1224278734     -1.3395689192     3.564787995
C     0.9680399033     -2.177351952     3.3832535219
C     -2.2808931136     0.46746548     3.5801748624
C     -4.8826571975     0.4419198249     -0.5225310999
C     -4.8811124187     -0.4336171366     0.537467454
C     -4.4161210367     0.0144934378     1.8387731679
C     -4.0396385246     1.3601932262     2.0756618872
C     -3.0384266518     1.5551718326     3.0711669835
C     -3.0508711431     -1.5484319174     -3.0628902081
C     -4.0483018777     -1.3526037703     -2.0637626394
C     -4.4227692405     -0.0065840581     -1.8255130669
C     -4.4705713368     1.8173730733     -0.3204346638
C     -4.1054139355     2.3085482042     0.9602504036
C     -3.224817168     3.4199145039     0.9578982996
C     -2.2852889794     3.6402185539     2.0451340451
C     -2.1579104677     2.7059670068     3.0407181258
C     -3.7461751531     2.2067605539     -1.4859218563
C     -1.5428949014     3.0060060201     -2.3361924541
C     -2.7049971789     3.1581733632     -1.4538016964
C     -2.5690512385     3.8601839008     -0.2274592612
C     0.8480018648     3.4201156355     -2.6911651669
C     -0.3513853336     3.7779632933     -2.0445811076
C     -2.2942554979     -0.4613708636     -3.5746387608
C     0.9576357758     2.1806699292     -3.3894884431
C     -0.1341986261     1.3438212168     -3.5670710593
C     -1.4417874774     1.8204967122     -3.1497668126
C     -2.5445568984     0.8736015488     -3.1872859914
C     -3.6906408818     1.0784915094     -2.3884353596
C     4.0678874209     2.2460421967     -1.6810657529
C     3.0542328289     2.6504592632     -2.5350999178
C     2.3028189229     1.6593169831     -3.2471115657
C     2.5524625821     0.2749821426     -3.1092774468
C     0.158089823     -0.0779551314     -3.7380436472
C     -0.9395328044     -0.9309365213     -3.8296745682
C     2.2590451731     4.283844873     -0.8855451986
C     3.2143853982     3.7508722157     0.0665722306
C     4.1291488072     2.7982737442     -0.3314415608
C     2.154561851     3.7174846074     -2.1458159439
C     -1.2983540508     4.4524499797     0.1366717769
C     -0.2245246701     4.4860283159     -0.7669000685
C     1.0616054402     4.6242933365     -0.1752720028


