96

 C     2.9086349876     -3.011198649     -2.005164226
C     1.7237990027     -2.9161037629     -2.770107942
C     0.62767936     -3.6598060717     -2.2924062811
C     -0.7026864446     -3.3229085166     -2.6250341207
C     0.0817466368     -1.2784574475     -3.7405405473
C     -1.0221474286     -2.1358593278     -3.3239966238
C     3.9249253535     -2.0179667992     -2.0961996887
C     3.743908376     -0.9150093942     -2.9239536555
C     2.4805810443     -0.7449634638     -3.6052515047
C     1.4493494774     -1.7141088479     -3.5423275442
C     -0.1687369487     0.1412550789     -3.9211541271
C     -1.4912831032     0.5840659368     -3.874790935
C     -2.5914255418     -0.2856592569     -3.5569057808
C     -2.3720129633     -1.6155494546     -3.1562573883
C     -3.2927323433     -2.1935325519     -2.1693717735
C     -3.6141974598     0.5351689991     -2.9794471936
C     -4.4399158636     0.0109017431     -2.0106405181
C     -4.3098105649     -1.369461575     -1.6442138983
C     -3.1221770582     1.8919939054     -2.8669423757
C     -3.447349995     2.6933785612     -1.7441112682
C     -2.4997853634     3.697153418     -1.4142379707
C     2.1862220882     0.6575293142     -3.6054386461
C     0.8767289751     1.1330203354     -3.6808810316
C     0.580980202     2.4244085069     -3.0956464935
C     -0.8096394445     2.8158159066     -3.0089701997
C     -1.8172983831     1.921010702     -3.4541836413
C     -1.2239712322     3.7685144211     -2.0453857708
C     -2.8356024489     -3.2951440415     -1.3240543783
C     -1.5750069297     -3.8452818693     -1.5809996525
C     -4.7001451941     -1.4551771433     -0.2465124692
C     -4.2015052999     -2.4371548342     0.5678626379
C     -3.3023924379     -3.4240490816     0.0192627711
C     -4.8613124222     -0.1197577035     0.2689168103
C     -4.3634064172     0.2109562718     1.5684587086
C     -3.9608539131     1.5463103922     1.7432325635
C     -4.2564617584     2.1029953048     -0.6660810457
C     -4.7632137053     0.7946189426     -0.8288854398
C     -3.9770094479     2.4926266741     0.6800939338
C     -2.7918625044     -3.0961528219     2.2518345267
C     -2.433722213     -3.8517393088     1.0719003628
C     -1.0797124159     -4.2164869013     0.8262810783
C     -0.7410807022     -4.3485295788     -0.5387120967
C     -1.8116818622     -2.772363585     3.1567226142
C     -3.7505369305     -0.8130289038     2.4070619742
C     -3.8102209422     -2.1473050803     1.9339956417
C     -1.787256762     -1.4607633062     3.7349427159
C     -2.6678713972     -0.4454633211     3.3253309501
C     -0.4467451304     -3.2105486979     2.965992637
C     -0.0258829521     -3.8639203283     1.7889598698
C     1.3535187588     -3.6638899695     1.3480916996
C     1.656524631     -3.9444791514     -0.0446510727
C     0.6162919755     -4.2125747078     -0.9604383077
C     2.8471288687     -3.4416761273     -0.6224683033
C     0.3929377532     -2.2725478371     3.6240726368
C     2.3092117148     -0.8563489744     3.6341234369
C     1.736723073     -2.0868641835     3.2354322869
C     2.2561211061     -2.8029797437     2.086356099
C     3.4793185708     -2.283870229     1.4615408895
C     3.7898735773     -2.6999404193     0.1468823776
C     -2.8806430478     1.9022986111     2.6634439442
C     -2.1601165397     0.9326326142     3.373430319
C     -0.7746660104     1.2376114776     3.7128790511
C     0.0773396054     0.1291928267     4.1299614328
C     -0.425783172     -1.1775842039     4.0906848656
C     1.485167939     0.2411065891     4.0529028583
C     3.4680424133     -0.3255500283     2.9921830813
C     4.0728552112     -1.0166917957     1.9167968933
C     4.7938935723     -0.2047795101     0.9807568504
C     4.9888364099     -0.6327059102     -0.3830069853
C     4.5272753949     -1.8621474136     -0.7781855947
C     3.3710330932     1.1017128522     3.0222479128
C     3.1736603935     3.042311195     1.5925218226
C     3.8939338667     1.8808879781     1.9643379057
C     4.6367802713     1.2140059622     0.9586746073
C     -2.2723717754     3.0926075727     2.1996328306
C     -0.905334719     3.3587055301     2.3976079884
C     -0.1434167485     2.4476222886     3.2271570384
C     1.9470741387     3.395690461     2.2334672171
C     1.3282546758     2.5366464768     3.185109748
C     2.1088360034     1.4456032239     3.6341992577
C     -0.9166684886     4.4646318007     0.1507814142
C     -2.2933319203     4.1112097838     -0.040380563
C     -2.9666652942     3.4738603944     0.9735751428
C     1.1545317512     4.1121894855     1.2760514129
C     -0.2366965536     4.1637667916     1.3658336665
C     3.2110697053     1.352960746     -2.8739437312
C     2.8907165376     2.47597131     -2.0799008058
C     1.5703000601     3.0603771429     -2.2361402087
C     1.8389231821     4.0865168184     0.0079623292
C     1.1039462729     3.9693017724     -1.2054088302
C     -0.264563692     4.2945461128     -1.1084864503
C     4.5809464267     1.6531041675     -0.4360886465
C     4.843758301     0.5231148976     -1.2569566084
C     4.1972537658     0.3859188539     -2.4840230508
C     3.0736150851     3.4261993183     0.2020346253
C     3.6557722769     2.6563523613     -0.8368680505


