96

 C     4.7319765735     1.0819892527     0.4745866223
C     4.1611722528     2.0038319921     1.390048715
C     4.5668690298     -0.9147083208     -1.5811598472
C     4.4969458261     0.4071514272     -1.92032427
C     4.6180262175     1.4382145606     -0.8950001153
C     3.6981033139     -1.8563634326     -2.234652431
C     3.2619167532     2.1940802701     -2.6078792991
C     3.8231559191     2.5430525996     -1.3190373147
C     3.069437182     3.3368003936     -0.401856573
C     3.340747954     3.0867326489     0.9583427877
C     2.0694761041     2.7317698022     -2.9900415648
C     1.3929552056     -3.4475346082     -2.3288518479
C     1.4009775705     -2.252760133     -3.0817423782
C     2.6163362114     -1.4412562687     -3.064389322
C     2.5437195635     -0.042059017     -3.4262130352
C     3.5549493547     0.8299476855     -2.9196913556
C     1.1150479268     1.9317163104     -3.7028275564
C     1.2627659344     0.5295521147     -3.8193628019
C     1.3519557593     3.6450020192     -2.1212770011
C     1.7474018034     3.8605076338     -0.7917352617
C     0.693687522     4.0809308879     0.2083933924
C     1.0398409271     3.8295831648     1.597405698
C     2.3128235062     3.3203624647     1.9534304772
C     0.0097900899     3.5517801669     2.5201762945
C     -0.0182354023     3.5712656644     -2.488401824
C     -2.3206081155     3.3289761435     -1.9235025514
C     -1.0490551405     3.8389757644     -1.5635061728
C     -0.7035932964     4.0804560131     -0.1725742025
C     -1.7566727423     3.8492909709     0.8257993413
C     -1.3606068013     3.6245356253     2.1536240814
C     -2.4754891001     2.3797592736     -2.9699036003
C     -0.1611087269     2.5448167452     -3.4903388363
C     0.1083453195     -1.6744275883     -3.4374281439
C     0.0406735066     -0.2848318619     -3.840702553
C     -1.2448123511     0.3879186568     -3.8677258827
C     -1.342576532     1.8260047048     -3.6377911148
C     0.1555563595     2.5179626467     3.5140888244
C     1.3390383087     1.8013402638     3.6559497517
C     2.4703826136     2.3634580408     2.9924071204
C     3.6068520856     1.5536300762     2.6535556221
C     3.5869142226     0.2203690413     2.9685030139
C     -1.1188699305     1.8996497365     3.7217845255
C     -1.262650952     0.4962146484     3.8274004631
C     -0.0382790506     -0.3148836616     3.8424110709
C     1.2453162393     0.3612395267     3.8746817098
C     2.4113872824     -0.3817484395     3.5811141796
C     -1.3930706453     -2.2806430915     3.0681352492
C     -0.1020580784     -1.7014802299     3.4283296387
C     1.115762986     -2.386407517     3.0008052505
C     2.3403381155     -1.7111754525     3.1227404227
C     -1.3817096112     -3.4694867468     2.3059557205
C     -2.6106981616     -1.4724361321     3.05708527
C     -2.542000072     -0.0759012872     3.4297914135
C     -3.6913083498     -1.8840903776     2.2241272453
C     -3.2664810766     2.1645214062     2.6288930206
C     -2.0755485999     2.7025572432     3.0152459915
C     -3.5556773846     0.7971860201     2.9300674453
C     -3.3478605256     3.0847135434     -0.9302719355
C     -3.0772353649     3.3249331517     0.4318402575
C     -3.8287086306     2.521953802     1.3428033584
C     4.7523086604     -1.3147632884     -0.1888557834
C     4.7790916772     -0.3423462189     0.8427629682
C     4.2030902443     -0.7455977938     2.0856532957
C     3.4653563092     -1.952969154     2.21481083
C     3.364261083     -2.8814651636     1.163118077
C     4.0908584178     -2.5638909547     -0.0233673636
C     2.4365486937     -3.7325400817     -1.3769411362
C     3.5436791252     -2.9375466848     -1.3134502446
C     -0.1698182507     -4.0421061047     1.7762144978
C     1.0869026666     -3.5110754181     2.0671533516
C     2.1709668132     -3.7128182151     1.0942780324
C     1.835444603     -4.256167343     -0.1672436613
C     -1.8219568693     -4.2624776731     0.1381042269
C     -0.4770101235     -4.5810284729     0.4729082677
C     0.491391471     -4.5758633579     -0.5045341693
C     -2.1590107461     -3.7102572401     -1.1191487292
C     -1.075526853     -3.4979023964     -2.0904116364
C     0.1826790155     -4.0276606275     -1.8036038159
C     -4.082101951     -2.5754615542     0.0073916619
C     -3.5338655121     -2.9576225269     1.2945313338
C     -2.4245121917     -3.749984882     1.3518407525
C     -3.4583376405     -1.9453674094     -2.2259541692
C     -3.3546293979     -2.8817412117     -1.1815231598
C     -4.4964935193     0.3795558014     1.9274243625
C     -4.1994531001     -0.7411170551     -2.087403939
C     -4.7765746113     -0.3491782165     -0.8414170262
C     -4.7470510078     -1.3295212313     0.182596153
C     -4.562720702     -0.9398121523     1.577977792
C     -3.5859973265     0.2334237159     -2.9626966365
C     -3.6096771709     1.5641280283     -2.6373778192
C     -4.1652447334     2.0029160048     -1.3704074178
C     -4.7334485553     1.0723711505     -0.4621584305
C     -4.6204832259     1.4182300608     0.9101638371
C     -1.1075450989     -2.366076966     -3.0152711413
C     -2.3340097466     -1.6933529583     -3.1319609571
C     -2.4087913445     -0.3606023464     -3.5799673863


