96

 C     -4.360014602     -2.5366036722     0.2456776504
C     -4.5254966434     -1.7072478533     1.3394274387
C     -5.0389276832     -0.3692927143     1.1676627568
C     -4.4045895617     0.4569306811     2.1683865373
C     -4.1616590378     1.793125538     1.9179708943
C     -3.2971325955     -3.4949562499     0.2335332059
C     0.9907728689     3.8441465809     2.0433267417
C     -0.339596157     3.4763952866     2.3202602106
C     -1.935712704     1.6691258512     3.0246730468
C     -2.9652081056     2.4140533871     2.4085807013
C     -3.3926895298     -0.3247732779     2.8334306014
C     -1.0252684753     -0.6598987048     3.3347013708
C     -2.1525517895     0.233910394     3.205899581
C     1.3731070308     -0.9292302593     3.6084929276
C     0.2764503038     -0.0646163442     3.5660911455
C     0.5216082407     1.3700927581     3.3583993806
C     -0.5821675799     2.2223343715     3.0162022889
C     1.8860251861     1.8118399453     3.1104825774
C     2.0768875838     3.0515667858     2.4622703575
C     -2.3610278162     -2.5165874854     2.2912876411
C     -3.4865958349     -1.6787646036     2.3492312229
C     1.4010924384     -4.2715860863     1.2561486916
C     0.1226551012     -3.9184941964     1.763105058
C     0.0561908437     -2.8502899165     2.7626467982
C     -1.1353670674     -2.0437634021     2.9125109379
C     1.2647384296     -2.3071363081     3.2313985509
C     -2.3034309474     -3.5404908669     1.2450838394
C     -0.8086813978     -4.5886594071     -0.414017175
C     -1.0348831993     -4.1745298954     0.9277428843
C     -1.357054196     4.0318646662     1.4418995226
C     -2.6412556732     3.4933313862     1.4997360849
C     1.3623446765     4.4705005179     0.7753350225
C     0.4053815598     4.7581296893     -0.1561421585
C     -0.9779444017     4.5985482776     0.1895714779
C     1.6699021223     2.7813749466     -2.9763559294
C     0.6114246406     4.3680689795     -1.5337581642
C     1.8120683521     3.7145764571     -1.9274254837
C     4.102637872     2.2647646081     1.3135731702
C     3.1568348545     3.2339739982     1.495887266
C     2.6500938333     3.9547341732     0.3702938115
C     4.5263099095     1.9116823222     -0.0079185498
C     3.8598482512     2.4259599142     -1.1477735561
C     2.8976377178     3.5153021194     -0.956121403
C     2.721033738     -0.4904358309     3.3227380083
C     2.9878453729     0.8548202306     3.0273777919
C     4.0896083144     1.087023123     2.1529235985
C     -1.6586726225     4.2032095188     -0.994059876
C     -2.8568473384     3.4735428289     -0.9552941496
C     -3.4564426658     3.3504824975     0.3295043171
C     -4.4329426142     2.3399521719     0.600425347
C     -4.8445666241     1.501236027     -0.4193270706
C     -0.6709960321     3.9698271269     -2.0246021698
C     0.3836614463     2.3423712548     -3.4145817854
C     -0.8164351833     2.8559865356     -2.8904670451
C     -1.9797731132     1.9864804588     -2.8030958911
C     -3.0776496288     2.4128045301     -1.9433796509
C     -4.1112939648     1.5061012194     -1.6845407804
C     -4.4872979069     -1.9806729026     -1.096191435
C     -5.2231930634     0.1431534258     -0.1254125418
C     -4.8339491423     -0.6599189258     -1.2629360453
C     -2.9052164107     -3.6443686054     -1.1493694679
C     -3.4581164936     -2.5556285312     -1.9149105281
C     -1.6783151545     -4.1352016192     -1.4577467106
C     0.491020149     0.9588403915     -3.7814775632
C     -0.5556580359     0.0579083007     -3.5960730251
C     -1.8620104754     0.5952364358     -3.1874369528
C     -2.9073345093     -0.3376873627     -2.8313215547
C     -4.0579171065     0.160644697     -2.1673878315
C     -0.2112770554     -1.3598871612     -3.4181857419
C     -1.2649529615     -2.2602109981     -3.0236845727
C     -2.6157300608     -1.7657929741     -2.7389615677
C     -0.8854321289     -3.5156358798     -2.493352346
C     1.8676998997     0.5739719743     -3.6627358719
C     3.4757440655     -0.9292435406     -2.7365459951
C     2.2261094846     -0.7565707758     -3.3814984241
C     1.1790438832     -1.7575228238     -3.2683307084
C     1.5223580228     -2.9992040277     -2.5892187746
C     0.4722493083     -3.8479207207     -2.2314776267
C     4.9718868067     0.5334777623     0.0832582966
C     4.8513562203     -0.3040342484     -0.9969692306
C     4.1947999971     0.1769164692     -2.1927070096
C     3.6995078173     1.5090599645     -2.2821402005
C     2.5936338422     1.6854566164     -3.1392684828
C     3.4321082423     -1.5627248393     2.7101554695
C     4.3419500007     -1.3288736021     1.6411071759
C     4.7002340281     0.0275752932     1.4240868896
C     3.4802438558     -3.3842271338     0.5491029391
C     2.6069435433     -3.6275313133     1.6930154086
C     2.5479819658     -2.7024593092     2.7071476387
C     4.5365713196     -1.7019893244     -0.8048647588
C     4.3164349453     -2.2429638232     0.494487847
C     0.5035428849     -4.5954756317     -0.9770988262
C     3.7233072053     -2.0899354218     -1.9075211655
C     2.7720413599     -3.1196657111     -1.8205464386
C     2.7874640396     -3.8630445623     -0.6034101035
C     1.5875317154     -4.5232436451     -0.1509997825


