96

 C     3.2368860419     -0.0638834594     3.2581149796
C     3.7952719958     0.9001765247     2.3993048014
C     4.6147177043     0.3780271879     1.3571560134
C     4.8754686668     1.1330641607     0.1610875159
C     4.3275248701     2.3891724046     0.0357221716
C     2.0125010934     0.2004963583     3.9699780511
C     -0.0816921555     1.3492686611     4.0538949702
C     1.2982909763     1.4087254484     3.7625663485
C     1.7822346048     2.4030582197     2.8236835814
C     3.0999543509     2.1809471904     2.2101390454
C     3.4434038528     2.9134944109     1.0609903774
C     4.3789358675     0.6510419482     -2.2025657507
C     3.8038093457     1.9749106237     -2.3354536588
C     4.8984803065     0.2239364035     -0.9723893932
C     3.8051870073     2.8264366614     -1.2503931007
C     2.6656365842     3.6557673823     -1.0129431448
C     1.5467872691     3.6344338791     -1.8829210202
C     0.363943507     4.1516141275     -1.339726699
C     -1.0153818112     2.2469990121     3.4578265206
C     -0.6152520927     3.1884196806     2.5046639419
C     0.8237985484     3.2952474084     2.2073150413
C     1.2013794031     3.960409258     0.9791417036
C     2.4760858188     3.7435481493     0.4118708487
C     0.2020074833     4.365366672     0.0710172748
C     2.253320277     -2.2114900748     -3.0885340819
C     3.3661089866     -1.57054661     -2.5132367112
C     3.5967759328     -0.2474636656     -2.9625705038
C     1.4394433844     2.6279298736     -2.9342572925
C     2.6122000491     1.8612610711     -3.1673567579
C     2.5169535692     0.523803614     -3.5941207948
C     0.1352344427     2.080550202     -3.2863774667
C     1.2677462272     -0.0524262749     -3.9030007552
C     1.2337899888     -1.4641994463     -3.8413252364
C     3.81014221     -2.0056158447     -1.1935212566
C     4.6125298332     -1.0839829501     -0.4731879283
C     1.6468302696     -3.3152137873     -2.4819125967
C     1.9647926766     -3.7002209545     -1.1351068199
C     3.0469610933     -3.0188366247     -0.4632949384
C     3.0765499801     -3.0008156144     1.0045364652
C     2.0309217975     -3.6364216124     1.706412052
C     0.2867724333     -3.3646498291     -2.9870477595
C     -0.7083310905     -3.9427820309     -2.2652171867
C     -0.4301371776     -4.4319257656     -0.9303346794
C     0.8798695736     -4.3102005005     -0.3708140771
C     0.917315359     -4.2244981127     1.0264660422
C     -2.0379919651     -3.3990858331     -2.3264365308
C     -3.4419747682     -1.5016745812     -2.6615147554
C     -2.3079203024     -2.2034844655     -3.0647361173
C     -2.4348972268     0.687054006     -3.2813854901
C     -1.2177169293     -1.4688686016     -3.6918532027
C     0.0263440427     -2.1531770731     -3.7599102242
C     -3.5591177818     -0.0783509848     -2.88221476
C     -1.223810946     -0.0158597259     -3.7059767604
C     -0.9058358936     3.830645478     -1.8993358206
C     -1.0624849957     2.7444130127     -2.7965161999
C     0.0374788301     0.7069142586     -3.7627943219
C     -2.3566109396     2.0663381666     -2.8249817411
C     -3.3931520432     2.5523660646     -1.9753081812
C     3.7797829291     -1.9313431728     1.7117016476
C     4.524104682     -0.9988735167     0.9721916759
C     1.5313853776     -3.1207188562     2.9594777372
C     2.1396612583     -2.0578364863     3.5778895819
C     3.2926036767     -1.4607817631     2.9649819823
C     -0.7558795249     0.100251165     4.2564696638
C     1.3353112229     -1.0416705371     4.1898898893
C     -0.0874361185     -1.125109202     4.1696384441
C     -1.5991086904     -4.1878910758     -0.1737214015
C     -1.5415156973     -3.8222615089     1.1997222152
C     -0.2778359711     -3.9818751044     1.8002036748
C     0.0861168122     -3.2453387466     2.9661831335
C     -2.0860148498     -2.0786654324     2.898376263
C     -0.7523620548     -2.2488717467     3.4870280782
C     -3.5970969789     -2.422194604     0.9037085596
C     -2.4863973819     -2.8674332044     1.7572683568
C     -4.3256451523     -1.2834058652     1.2842536322
C     -3.8941844462     -0.464556961     2.3811037639
C     -2.7905422967     -0.8352703653     3.172280554
C     -2.1083839541     0.2413601518     3.8042437134
C     -4.8555461034     -0.6651315988     -1.0340575916
C     -4.1594482785     -1.838259588     -1.4619608915
C     -3.6058376495     -2.7569930903     -0.5239553363
C     -2.6067404925     -3.5984682407     -1.0448247436
C     -4.9721770258     -0.4135517206     0.3211577147
C     -4.6304251099     1.9923186552     -0.0607994045
C     -4.4356154906     1.7093108995     -1.4794206552
C     -4.5321407055     0.4135696821     -1.9484211032
C     -4.8694652908     0.9450375081     0.8144809595
C     -1.8773294748     4.091724874     -0.8727066519
C     -3.7177911156     3.0493541531     0.3089707753
C     -3.0935968888     3.48181497     -0.9104746115
C     -2.3021352295     1.5860821621     3.3934873086
C     -4.1887127663     0.9151419973     2.0773992109
C     -3.2833189285     1.9441286302     2.4464379228
C     -2.9826279933     3.0276045355     1.5237864723
C     -1.6426262592     3.642251861     1.5527841136
C     -1.1915661748     4.2632580454     0.3779813159


