96

 C     2.2131734604     -3.875889554     0.9701631544
C     0.9190369974     -4.1426285181     0.4858174784
C     -0.6229160392     -3.948623084     -1.4988318405
C     -1.6938069748     -4.1376281198     -0.6097277254
C     -3.007086912     -3.6541758561     -0.8923035323
C     -3.2450595409     -2.9563672781     -2.0659835205
C     3.3093635508     -3.5751084341     0.097286433
C     3.0796557353     -3.470477446     -1.2712181938
C     1.7753380444     -3.718642432     -1.7864784115
C     0.7070177101     -4.1088401981     -0.9576989061
C     -0.8445105645     -3.1379514213     -2.6961437829
C     -2.1478584141     -2.6814905157     -2.9512662198
C     -4.4399127053     -2.1164549895     0.3670673396
C     -4.6717118007     -1.3569488459     -0.8509096055
C     -3.6088909293     -3.2181066135     0.3547768157
C     -4.0892960067     -1.77613584     -2.0385480662
C     -3.5375323194     -0.8037247118     -2.9277368439
C     -3.5994365275     0.58344354     -2.6197504831
C     -2.6525955393     1.3877680291     -3.2820491352
C     1.548869718     -2.7832197468     -2.8737132299
C     0.2718880843     -2.3841602506     -3.2560175399
C     0.104676757     -1.0431720592     -3.7859895318
C     -1.2558592903     -0.5699991351     -3.9219220549
C     -2.3489709469     -1.3745018671     -3.5129067385
C     -1.4986651629     0.8113843473     -3.9524460793
C     -3.1394088191     -0.2519328426     3.2882334632
C     -3.46691498     -1.4058157293     2.5424154221
C     -4.3676514236     -1.1988641516     1.4677167521
C     -4.1152970615     1.0418583885     -1.337364397
C     -4.6768547138     0.0384491725     -0.4923653705
C     -4.5863999099     0.1249102014     0.9335447464
C     -3.5957782855     2.260740971     -0.7320226909
C     -4.0728904239     1.2759116285     1.5605971931
C     -3.5099930291     1.0707926717     2.8480153343
C     -2.4986898767     -2.5067002705     2.4820258808
C     -2.6298743207     -3.4077128409     1.4061316313
C     -1.9154073164     -0.1626441552     4.0077253759
C     -0.9448963608     -1.1981515213     3.9405961639
C     -1.1946431676     -2.3783199494     3.1147029734
C     0.381112558     -0.7958134     4.2078186599
C     -2.1706575     3.0802543026     2.6342915737
C     -2.5317727804     1.967393244     3.3709783964
C     -1.5273437118     1.2300442271     4.0667544147
C     -0.1651712062     1.6150969033     3.9842249974
C     0.7711300706     0.5911341873     4.1876026312
C     -1.8140311473     4.0964646167     0.5772238114
C     -2.7542503304     3.3177871116     1.3395091301
C     -2.283852467     2.6523545438     -2.7854481132
C     -2.6879362995     3.1009207655     -1.4963217256
C     -3.6271360299     2.3917582864     0.7284479207
C     -1.7807655967     4.0295556332     -0.8229228065
C     -0.5327409783     4.3919867319     -1.4182943465
C     1.4857038024     -1.5546836234     3.748175163
C     1.2894141445     -2.7198017857     2.974921524
C     -0.0615200856     -3.1128771136     2.5937192737
C     -0.2056660056     -3.8935712604     1.377286996
C     -1.4824550873     -4.0282882505     0.8237793954
C     2.3906476832     -3.1239250988     2.1845589705
C     2.5806043484     -0.6557218172     3.4865293993
C     3.5909412946     -0.9760571027     2.5571806443
C     3.5694097207     -2.3015197809     2.0405936401
C     4.7501579299     -1.5827680469     0.0342548343
C     4.1465115286     -2.5984811938     0.7618104049
C     -0.8010752455     3.5248575349     2.6010205457
C     0.2389193572     2.77518987     3.1785557392
C     1.5780964821     2.8296528714     2.5739320297
C     2.5174209391     1.747342237     2.8297448877
C     2.0956159962     0.6729695717     3.6670514893
C     3.6289047996     1.4688404311     1.9352893388
C     4.1762383677     0.1095512609     1.7872227065
C     4.8090303554     -0.2470670079     0.565626033
C     1.7799449405     3.6754002663     1.4152620651
C     2.9279984373     3.4514698577     0.619887631
C     3.8242530022     2.380390253     0.873175209
C     1.7705092871     4.1242595561     -1.4509754505
C     0.6393287293     4.5575939857     -0.6454465417
C     0.6475276551     4.3420047422     0.7683102219
C     -0.6168271354     4.2285412998     1.3542614288
C     2.8772817604     3.6262979835     -0.8264584311
C     -0.9570998574     2.9362834766     -3.3143084244
C     1.2985901276     3.5245578632     -2.6604227957
C     -0.1138194317     3.7881281731     -2.6728188962
C     2.6743232487     -1.9018648799     -2.9614342512
C     3.4441807951     0.4198258783     -2.6574637026
C     2.5059832926     -0.5297170129     -3.261015532
C     1.2008162582     -0.0913634154     -3.7278276754
C     3.6142243418     2.5705343086     -1.4558621926
C     3.070049969     1.8228403123     -2.5409548921
C     1.8361694344     2.2906970371     -3.1395889366
C     0.9175304574     1.3372097545     -3.7575752091
C     -0.4321767696     1.7448328234     -3.9269625937
C     4.3379244708     1.9298245835     -0.4050341687
C     4.7712600286     0.6459710915     -0.5641253971
C     4.4178822814     -0.0866678285     -1.7557870772
C     4.4942061981     -1.4759487823     -1.3983232843
C     3.6615928768     -2.3785407487     -2.0240909212


