96

 C     -2.0228471928     -3.3024384741     1.8531065407
C     -2.9528462828     -3.3994759998     0.7883134587
C     0.2191545161     -2.5123877427     3.4168627325
C     -0.9489038506     -1.7347311377     3.4884580608
C     -2.1377695986     -2.1731381193     2.7647334581
C     -3.2380105886     -1.2460625442     2.6072252429
C     -3.126062935     0.0304834695     3.226944237
C     1.5100072765     -1.9514657901     3.6121427749
C     1.7159988667     -0.5584887667     3.7869784509
C     0.5471610936     0.2716918847     3.9168531961
C     -0.765065096     -0.3462523444     3.8739491324
C     -1.890991086     0.48837729     3.7788943494
C     1.8775203979     2.2138058113     3.1900791655
C     0.6492583516     1.6983534081     3.6151381923
C     3.043818114     1.3767309351     3.0344910913
C     2.9800642909     -0.0012569624     3.3151165086
C     3.8933378926     -0.8158484189     2.579615406
C     -4.1550041519     -1.359650774     1.4766665393
C     -3.9518967005     -2.4238355796     0.5646382067
C     -3.8226071425     1.1864954963     2.7142473902
C     -4.6078813356     1.0812307226     1.5764366059
C     -4.7805948095     -0.1906963537     0.9513121656
C     -2.9749196504     2.3454096662     2.8997391481
C     -4.5033532161     2.0818022648     0.523856046
C     -3.6372791675     3.1389405527     0.6627506449
C     -2.8841250436     3.3042955373     1.8933681637
C     -0.5271712387     2.4849577705     3.2871668893
C     -1.7783843764     1.9117487307     3.5528870887
C     -1.6178902416     3.8625294174     1.5607352227
C     -0.4478778889     3.5262881442     2.2634500509
C     -4.876722436     0.0245410297     -0.4769227203
C     -4.4984102533     -0.987405182     -1.3947477823
C     -4.1285715133     -2.2478805325     -0.8690038941
C     -3.8920178513     -0.5825491355     -2.6080233422
C     -3.7882098384     1.7957527063     -1.8536522449
C     -3.5384390404     0.7931274775     -2.8221933077
C     -4.600264706     1.4075135885     -0.7462440456
C     -2.8807400833     -1.3888789588     -3.231189145
C     -2.4435734789     -2.6124639539     -2.6736697007
C     -3.1777114053     -3.0734258467     -1.537976185
C     -2.5364258799     -3.8709590167     -0.5247513847
C     -1.2732539786     -4.3318456785     -0.7328811723
C     -1.9628294766     -0.5239112148     -3.8967802245
C     0.2616228692     0.2157057685     -4.2997175279
C     -0.5997170897     -0.8671230429     -4.0549639132
C     -0.0768790136     -2.1055069932     -3.4642495774
C     -1.0265129451     -2.986943629     -2.8205298816
C     -0.5138835835     -3.9300182474     -1.9025468762
C     -2.7870045582     3.5424408129     -0.4421402784
C     -2.7934726201     2.8669252757     -1.6805309005
C     -1.5700100895     2.8844328884     -2.4683610453
C     -1.4166001828     1.8751134336     -3.5084758694
C     -2.3682178605     0.8317829572     -3.6307059064
C     -0.1402903523     1.5742981607     -4.0233453266
C     0.3307790652     -3.6290579339     2.4997666092
C     -0.7436923804     -3.9804439674     1.6714489933
C     -0.379843084     -4.4881078024     0.3837765481
C     0.9380716454     -4.3572791006     -0.1154213678
C     2.0089650203     -3.9512809892     0.6993926007
C     1.6862174983     -3.7155122976     2.0692421456
C     3.5602699054     -2.1956141817     2.2878510469
C     2.4316224902     -2.7485129176     2.8297393043
C     3.844378597     -1.7937245482     -1.7624795323
C     3.0221646055     -2.8455168858     -1.3277530987
C     3.1222506675     -3.2534126122     0.0758031046
C     3.969113687     -2.507382507     0.9348792134
C     1.6568744788     0.1176483224     -4.0658193922
C     2.2110695461     -1.0622538405     -3.4917543112
C     1.3350805385     -2.1775216097     -3.1331808036
C     1.7961943372     -3.0912518387     -2.096469847
C     0.8487811645     -3.9497323709     -1.5240911322
C     3.4342849443     -0.901777961     -2.8117137725
C     4.6790413851     0.3482261955     -1.2861959871
C     4.6667029735     -1.036262009     -0.8589642297
C     4.6913307252     -1.3636232711     0.4746499466
C     3.9732133051     2.603844582     -0.7712098593
C     4.622192948     1.4097711422     -0.338013843
C     2.1507167261     1.4211274928     -3.7377009606
C     3.2998753586     2.68866035     -2.0231776321
C     3.2844209235     1.5849492238     -2.9156688244
C     3.9859988425     0.4121082117     -2.5290271416
C     -1.5754579084     4.0418580933     0.1164270241
C     -0.369576064     4.0423014811     -0.5977571906
C     -0.3756269004     3.5259457197     -1.9552850456
C     2.1036008363     3.5022145962     -1.8457255184
C     0.9182971074     3.2589801117     -2.5795482491
C     1.0103588391     2.2904927506     -3.6147075109
C     3.1793492575     3.0927044144     1.4957274233
C     1.9609375059     3.281186351     2.2243825959
C     0.8077656934     3.8102899229     1.613862593
C     3.2397215999     3.4347736128     0.1633036741
C     2.0725644457     3.9543388981     -0.490114407
C     0.8500520168     4.120269242     0.1885343561
C     4.635101852     -0.3054473637     1.4790031097
C     4.5696613581     1.0610518058     1.0926302371
C     3.8482606073     1.904078728     1.976915223


