96

 C     -4.9422609346     -0.001279131     1.9098406611
C     -4.2479450599     1.15623182     2.4191242064
C     -5.4288064153     0.0054621645     0.5963177042
C     -4.2083639138     2.3216591162     1.6800541204
C     -3.0479323368     3.1597437438     1.7534256769
C     -4.6965245631     -2.3153036035     0.2842546678
C     -4.2100640089     -2.3223431559     1.656860978
C     -5.2223389219     -1.1526310338     -0.2452187567
C     -4.2487960474     -1.1643288431     2.4075364467
C     -3.045117413     -0.7237317555     3.084918562
C     0.652514763     -2.7798152602     2.3878862739
C     0.6603576387     -1.4620148464     2.9772985012
C     -1.8389939445     -1.4530944942     3.0291847494
C     -1.8644243793     -2.7669738235     2.3969066402
C     -3.050244089     -3.1619675252     1.721856066
C     -0.6196721992     4.2815650988     0.9513935923
C     -0.6100988193     3.3788897262     2.0394992864
C     -1.8624032003     2.7571564013     2.4244874848
C     -1.8379352918     1.4370095773     3.0436122815
C     -3.0445920433     0.7080103274     3.0920665192
C     0.6545410099     2.7682431723     2.4155813574
C     0.661418705     1.4446181378     2.9918035242
C     -0.5867516084     0.7134413412     3.1745147749
C     -0.5872804062     -0.7317856984     3.1673018967
C     1.9032728528     0.7199843108     3.1032963831
C     1.9027401633     -0.7394380286     3.0960126685
C     3.1079398578     -1.4097697531     2.7673139024
C     -1.7553831601     -4.3266398027     0.0352928209
C     -3.8005236055     -3.1385483715     -0.4964891019
C     -2.9517756289     -3.8150813548     0.4417525277
C     1.87314907     -3.3026930302     1.7970890382
C     -0.6125721346     -3.385746453     2.0057264985
C     -0.6227996758     -4.2774903002     0.9086475411
C     3.0854352869     -2.6493339823     2.0644033293
C     -1.2878887098     -4.0945348882     -1.3044733041
C     -1.9262578584     -3.1610126012     -2.1313247423
C     -3.2713549791     -2.7021348405     -1.7408025554
C     -3.7837313794     -1.4410097948     -2.2635940725
C     -4.7664954067     -0.7037867912     -1.5444043489
C     -2.9334095835     -0.6858251933     -3.1065572235
C     0.1395294222     -4.219546552     -1.275546052
C     2.3360095665     -3.4389241013     -1.7644467824
C     0.9819525263     -3.4789938132     -2.1343427813
C     0.411107958     -2.4003343427     -2.9081195112
C     -1.0484691554     -2.3133790503     -2.9584877085
C     -1.5954282602     -1.1268897993     -3.4353995761
C     1.7999973988     -4.0564550509     0.5504520124
C     0.5369737953     -4.4189905557     0.0818432033
C     2.7740315758     -3.8359917779     -0.4523781207
C     -2.9328944731     0.7318972041     -3.0994801765
C     -3.7826696845     1.479241291     -2.2490115663
C     -4.7659708939     0.7355833951     -1.5372160852
C     -5.2214891421     1.1717551315     -0.2336104805
C     -4.6948272182     2.3286952016     0.3074468176
C     -1.9239400393     3.1964827883     -2.0995770532
C     -3.2693724879     2.7347072171     -1.7136544909
C     -3.7982224729     3.1590471654     -0.4650374937
C     -1.2848895989     4.1212303131     -1.2634422159
C     -1.7522166001     4.3402719059     0.0785778521
C     -2.9489832039     3.8255474045     0.4799106652
C     -1.5945909931     1.1752514609     -3.4239078769
C     0.4128765926     2.4418994084     -2.8839453984
C     -1.0467664793     2.356515707     -2.9351709359
C     2.3385360088     3.4675994298     -1.7299642499
C     0.9845081834     3.5123552612     -2.099433532
C     0.1426218818     4.2449021784     -1.2332725993
C     0.6088050421     0.0235767776     -3.4700062682
C     -0.7815178728     0.0250318576     -3.6596388418
C     4.5860452303     0.0142775237     -1.9004879367
C     3.3797783024     0.0185513879     -2.6672549714
C     2.6624244784     1.2842285111     -2.8203295774
C     1.2465831823     1.2917941145     -3.177365345
C     3.2071709066     2.4311364084     -2.1992818486
C     1.2456530069     -1.2479623821     -3.190039961
C     3.205400823     -2.3984585581     -2.2233932346
C     2.661498214     -1.2450051691     -2.8329524131
C     3.9918776587     3.1599404342     -0.1308358081
C     2.7768434401     3.8512125017     -0.4139903537
C     1.8029644236     4.0623486874     0.5909945056
C     0.5402065949     4.4304747495     0.1260378287
C     4.1972583809     2.6463538957     1.1445940033
C     5.4119058355     0.7243435243     0.1899001351
C     4.9966318759     1.1650934884     -1.1339450781
C     4.3218289553     2.3524950672     -1.287781814
C     4.9399729313     1.4218454415     1.3094226648
C     4.3201133169     -2.3297488493     -1.3111608417
C     5.411375942     -0.7172445736     0.1827013539
C     4.995789548     -1.1444408262     -1.1454803274
C     4.3032744704     0.6809241154     2.379505821
C     4.302772926     -0.6948972474     2.3726345683
C     4.9389361384     -1.425554259     1.2952035603
C     4.1953247745     -2.6478106117     1.1181569882
C     3.9895732873     -3.1484785982     -0.1623388266
C     1.8755584999     3.2961094547     1.8300363739
C     3.0873631453     2.639227913     2.0908085703
C     3.1089607058     1.3926872194     2.7813046346


