96

 C     3.2750504308     -1.8126918097     2.3756540316
C     1.9266024194     -2.1501991953     2.6040308341
C     1.4715939156     -3.4360773718     2.093131639
C     0.0590537177     -3.7365310888     2.0898512049
C     -0.4167109932     -4.7175248035     1.1743998779
C     -1.7713791605     -4.7406546253     0.7371698325
C     -0.8821446698     -2.7476376237     2.5976005726
C     -2.2501925869     -2.9879605915     2.3629433612
C     -2.7044513173     -3.9894446723     1.4117547225
C     2.8235758447     0.6118475683     2.6105266046
C     -0.4491557887     -1.3764683664     2.8940319641
C     3.7167638665     -0.452529304     2.3789022336
C     0.97174591     -1.074218454     2.8972179173
C     -2.6990265013     -3.9844869455     -1.401412956
C     -3.8415565961     -3.4588197486     -0.7003662407
C     -1.7685575297     -4.7380767873     -0.7258855239
C     -3.8442725348     -3.4613022565     0.7081640518
C     -4.2506583531     -2.2726620875     1.4118548137
C     -4.2452319545     -2.2677030069     -1.4014244234
C     -4.8974948188     -1.2637278614     -0.7257690398
C     -4.9003171779     -1.266306911     0.7372319204
C     -3.207240515     -1.92534378     2.3630171328
C     -2.8256120863     -0.5897819651     2.5976837243
C     -1.4167971269     -0.3020929357     2.8941451527
C     1.4183537867     0.300958469     2.9005499042
C     3.2841358983     -1.8043930365     -2.3345574859
C     1.9365807635     -2.1410832754     -2.5693224799
C     -0.4122126345     -4.7134151059     -1.1578015052
C     -2.241108935     -2.9796592771     -2.3473055524
C     -0.8721672671     -2.7385206399     -2.5758347033
C     0.0670731247     -3.7292043524     -2.0679473457
C     1.4796131858     -3.4287499256     -2.0647178088
C     -3.1981563953     -1.9170416758     -2.3473255774
C     0.911848765     2.7547550958     -2.5628778782
C     -0.0545434418     3.7532035211     -2.3312999625
C     -2.8156339225     -0.5806638122     -2.575809342
C     -1.4056873789     -0.2919422679     -2.8658178907
C     -0.438046465     -1.3663185055     -2.8657588796
C     0.9828550197     -1.0640694444     -2.8623987822
C     -1.4533251543     3.4556339111     -2.3344745542
C     3.7258500024     -0.4442312831     -2.3313085189
C     -1.9286869663     2.1505575269     -2.5693538933
C     -0.9569884454     1.089739131     -2.8625818445
C     0.4572760914     1.3905673432     -2.8594010024
C     1.4294640698     0.3111076696     -2.8591624136
C     2.833555344     0.6209616971     -2.5626254036
C     -3.2569065859     1.830276561     -2.0645531087
C     -3.702944612     0.4567529216     -2.0678456617
C     -3.8708055443     2.7334486295     -1.1512812946
C     -4.7316431562     0.0826371149     -1.1576251093
C     0.3821061747     -5.0043886343     0.0093268366
C     2.3139023873     -4.1334834873     -1.1514745434
C     1.7016410591     -4.7237309858     0.0123674165
C     4.1071372678     -2.5367509452     -1.3857007976
C     3.5609805044     -3.6044628286     -0.713601516
C     4.1017115399     -2.5417076915     1.4274054266
C     4.9309266085     -1.5947129951     0.728341974
C     3.5581592813     -3.6070414887     0.7494453337
C     4.9336438599     -1.5922318814     -0.6801110076
C     4.8207495728     -0.3392803324     -1.3804441815
C     5.0023249773     0.8400782529     0.760052249
C     4.8153226857     -0.344236181     1.4326441315
C     5.0051479153     0.8426559137     -0.702967664
C     4.3076380888     2.0053920325     -1.1368380829
C     3.2196324633     1.9292018928     -2.051818978
C     2.2531689323     3.0022433464     -2.0518260198
C     2.4423453921     4.0762768376     -1.1367726702
C     2.3094049978     -4.1375948116     1.1806367407
C     3.2544951279     3.8400465309     0.0304512356
C     4.1573632937     2.837678063     0.0304267642
C     1.3558923637     4.8886777136     0.7601502732
C     2.4378465784     4.0721682571     1.1953580197
C     0.1585586413     4.8261691154     1.4327656756
C     -1.0703646929     5.0741090662     -0.6799788722
C     0.1639850373     4.8311254863     -1.3803129386
C     1.3587156662     4.8912560928     -0.7028683179
C     -1.0730817554     5.0716264186     0.728535862
C     -3.217438433     3.9159439726     0.7496243498
C     -3.2146166353     3.9185226314     -0.7134094779
C     -2.0958922523     4.3505087067     -1.385580032
C     -2.1013187797     4.3455520911     1.427623027
C     -4.9382631313     0.9029379122     0.0094760525
C     -3.8753029786     2.7293380267     1.1807833205
C     -4.5215472092     2.1859796444     0.0125396718
C     4.3031381938     2.0012829033     1.1953225326
C     3.2116113575     1.9218771193     2.1058256907
C     2.2451482692     2.9949184801     2.1058845358
C     0.9018679991     2.7456389495     2.6108836533
C     0.4461651053     1.380417564     2.9008426447
C     -0.9680993228     1.0795890289     2.8975083255
C     -0.0636302221     3.7449031284     2.3790987969
C     -1.4624107619     3.4473331815     2.3758287781
C     -1.9386665275     2.1414401888     2.6042734288
C     -3.2649267525     1.8229490448     2.0932282242
C     -3.7109649102     0.4494250373     2.0899614848
C     -4.7361425182     0.0785272653     1.1744673302


