96

 C     -1.937058965     -3.1725167511     2.2272659701
C     -2.7151746746     -3.425792871     1.0838196455
C     -3.9707910268     -2.7558628907     1.0217929463
C     -4.6032062475     -2.4676036667     -0.2438540136
C     -3.8999313588     -2.747043417     -1.4113151179
C     -0.5111690398     -3.39911885     2.2423940781
C     0.186975404     -3.8512024274     1.0933906503
C     -0.5560833193     -3.9291462014     -0.1411745647
C     -2.0037520757     -3.7637445738     -0.1469582908
C     -2.6106406683     -3.3929278502     -1.3566827992
C     1.5639312339     -3.6927375008     -1.324636837
C     0.1723633109     -3.6584031986     -1.3538961772
C     3.5744801827     -2.4021726187     1.9017481208
C     2.2617923337     -2.8701498178     2.1317340106
C     1.6200696129     -3.6909372282     1.1102421103
C     2.2998629619     -3.8509917294     -0.1213275917
C     -5.361773027     -0.3155629704     -1.1879495334
C     -4.5496016032     -0.578292094     -2.362266773
C     -5.3419582006     -1.2294316922     -0.1273200708
C     -3.8537402449     -1.7646627082     -2.471948919
C     -2.5213279263     -1.7656564443     -3.02814838
C     -0.3209188078     1.8423828333     -3.0494282314
C     0.3751102984     0.6390174813     -3.4008713927
C     -1.8305549908     -0.5767103337     -3.3668604218
C     -2.5506800909     0.6815116531     -3.2111360697
C     -3.9107412085     0.652479664     -2.779927591
C     0.3156879001     -1.8222361262     -3.0676947931
C     -0.3805985187     -0.6154760289     -3.4067606762
C     3.9057157832     -0.6350392933     -2.7891831296
C     2.54533328     -0.6598268887     -3.2196368549
C     1.8250953114     0.5998644364     -3.3624379233
C     2.5161275535     1.7854202486     -3.0125557088
C     -0.4291649522     -2.8842675237     -2.4159894675
C     -1.8129543254     -2.8442807365     -2.4363471039
C     1.766208142     -1.8562679164     -2.9805561772
C     2.3590903987     -2.9135877428     -2.2550711336
C     -3.674742891     2.8060849388     -1.6675996604
C     -5.2860471165     1.0990288436     -0.9214398209
C     -4.455026299     1.699666814     -1.958430276
C     0.4244257144     2.8979439075     -2.3878531637
C     -1.7713730838     1.8755458751     -2.9608756311
C     -2.3637095068     2.925672619     -2.224575776
C     1.8082013244     2.8581639721     -2.4096364356
C     -3.6263150977     3.3305244433     -0.312954424
C     -4.2915594468     2.6676964111     0.6977659322
C     -5.1639237059     1.5554613442     0.3968126393
C     -5.0252848299     0.605135368     1.4788042374
C     -5.145478957     -0.7504706496     1.225001715
C     -2.3028878094     3.842024797     -0.0817508567
C     -3.5759930612     2.3733536984     1.9279143472
C     -2.2631346691     2.8390447159     2.1615134841
C     -1.6221704791     3.6698483588     1.1476719452
C     -0.1763055887     3.6615826406     -1.3177440344
C     -1.5678519105     3.6956209118     -1.2871115908
C     2.606694966     3.3961535873     -1.3252187577
C     2.000713292     3.7550453728     -0.1114519643
C     0.5530499237     3.9203747082     -0.1029619444
C     -0.1890850228     3.8302767499     1.1313304943
C     0.5099122362     3.3669058666     2.2753036441
C     -2.2176364278     -2.0724497188     3.0850066505
C     -4.2745446617     -1.6756701394     1.9171318478
C     -3.3102142593     -1.2135888209     2.8538036099
C     -4.0038910559     1.0997761018     2.3980547425
C     -0.0843016143     2.4436582972     3.1621189263
C     -1.4372807718     2.0558705884     3.0506005435
C     -1.7968458676     0.7162284935     3.4292484503
C     -3.1034358899     0.2161443286     3.0547122546
C     -0.7059859305     -0.2261737157     3.7294845741
C     -0.9609419763     -1.5844711304     3.5758114789
C     0.9606707216     1.5392231624     3.5904624148
C     0.705829453     0.1794826396     3.7309555723
C     3.1027726129     -0.2561663801     3.0500742203
C     1.7964663055     -0.7599127647     3.4206455011
C     1.4366074612     -2.0957673991     3.0291007769
C     0.0837087688     -2.484637341     3.1378017388
C     4.0027312718     -1.1332886362     2.3840755826
C     2.2170026017     2.0320148177     3.1035377338
C     4.2730378004     1.6467598634     1.9302883898
C     3.3094082675     1.1754778179     2.8630886981
C     3.8959451312     2.7508451214     -1.3871699926
C     4.6000899889     2.4599271335     -0.2230444563
C     3.9686205839     2.7357148666     1.0458537829
C     2.7130537644     3.4049962152     1.1154032816
C     1.9357900165     3.1404667388     2.2568808525
C     5.3579439872     0.3172893306     -1.1888406794
C     4.5448955422     0.5915643952     -2.3599082389
C     3.8489569924     1.7789536189     -2.4573892659
C     5.3389264636     1.2206729667     -0.119251748
C     3.6705384084     -2.799487727     -1.6979257229
C     5.28240817     -1.0998567384     -0.9362094749
C     4.4506112947     -1.6902587462     -1.9784385273
C     5.1434548296     0.7284216608     1.2284352519
C     5.0234386908     -0.6296136741     1.4689740497
C     5.1612658377     -1.5692428245     0.3775793547
C     4.2891237491     -2.6843898239     0.6682246089
C     3.6231193235     -3.3372340972     -0.3484726751


