96

 C     2.4088373011     3.8382253782     -0.0682338263
C     3.5129420346     3.0939490555     0.3629783398
C     -0.2650472364     4.5972598874     -0.6597125036
C     0.1484985849     4.6057642225     0.6470080843
C     1.5062523819     4.2529497494     0.9508449736
C     -1.6229776061     4.2465588132     -0.9684000809
C     -0.722325042     4.0988303539     1.676883198
C     -2.0298200077     3.6395022041     1.3883621889
C     -2.5253912421     3.7652126495     0.0130976286
C     -4.2396001336     2.0598481062     0.5113254499
C     -3.6081223974     2.8940362485     -0.4424282375
C     -3.6276295317     2.4478005452     -1.7970412111
C     1.4944336052     3.597145903     2.2153954107
C     2.4888402591     2.6650439701     2.5735515881
C     3.6086607953     2.5925814855     1.7046759066
C     4.4545221548     1.4328292578     1.6695426407
C     4.1435479996     0.3535513407     2.4893336737
C     0.1238675089     3.4357539239     2.6235852647
C     -0.3071739729     2.2821555968     3.3201941069
C     0.6833669003     1.2644986577     3.6468850365
C     2.0863659801     1.4906114235     3.3349757688
C     2.9444465903     0.3731285525     3.2883705338
C     -1.1480653491     -0.3166170778     3.9470607033
C     0.2317267312     -0.0934758884     3.8654498245
C     -3.7617418792     1.9669598285     1.8432972969
C     -2.5807242507     2.6448544746     2.2755453983
C     -1.7177288699     1.9718462399     3.2363112632
C     -2.1076090023     0.6920845667     3.7026097342
C     5.0641226017     -0.0910827074     -0.1552785429
C     4.8163172394     -1.2191895561     0.7315540462
C     4.8748309065     1.2113881073     0.3048962785
C     4.3284785342     -0.9973221557     2.0015048113
C     2.4834219367     -3.8498233872     -0.4803706089
C     4.2878614984     -2.3070871413     -0.05055278
C     3.2739206916     -3.174302801     0.4668887662
C     3.2417238472     -1.8146646197     2.5114946162
C     1.3098084785     -3.2570310564     2.0929878815
C     2.6800865279     -2.8784970803     1.7844065092
C     -0.7964312777     -4.2341123346     1.1969390797
C     0.6040707572     -4.1065875297     1.136802405
C     1.1750634272     -4.328942723     -0.1419276843
C     1.07840199     -1.2388733308     3.5493751395
C     2.4294364991     -0.9756886859     3.3320741956
C     -1.7248285425     -1.6121860107     3.6009823736
C     -0.9147317441     -2.6508574024     3.0906344549
C     0.5300388529     -2.4735639859     3.021705947
C     -1.5653567019     -3.5513380907     2.2138196856
C     3.0271786451     -0.0923967584     -3.2258859607
C     3.9178914285     0.4672362949     -2.2704596092
C     4.6388813941     -0.4558676513     -1.4569360127
C     4.2353853776     -1.8602321213     -1.4048742345
C     2.4724123088     -3.4670282304     -1.8606811744
C     3.2813917672     -2.3927042796     -2.3103631838
C     2.7231354565     -1.5112983404     -3.2641128114
C     3.6295206652     1.8112379844     -1.772633436
C     4.1905529182     2.1684003872     -0.5165003806
C     1.8867952461     0.6067115232     -3.6588548609
C     1.562203348     1.9036946812     -3.1931339716
C     2.4426190073     2.5350912675     -2.2332975159
C     1.9103878782     3.622905335     -1.4261333709
C     0.6175950856     4.0970598994     -1.711938293
C     -0.852893426     1.3220247198     -3.7217717229
C     0.1826436235     2.3068435718     -3.3564942414
C     -0.221081865     3.4737911638     -2.6841542626
C     -2.191236744     1.6196376898     -3.4434085847
C     -2.5631616081     2.7913831766     -2.6847283094
C     -1.5976404125     3.6771722279     -2.2875405942
C     1.1328207003     -3.6507629745     -2.3517162396
C     0.5272502362     -2.6966510493     -3.2068204447
C     1.3766787593     -1.6708467132     -3.7051808491
C     0.8572178052     -0.367939591     -3.9719706313
C     -1.4319343785     -1.1619648217     -3.5280827554
C     -0.5014839582     -0.0846890432     -3.8837676155
C     -1.704123394     -3.2902939778     -2.22692678
C     -0.9119359069     -2.4474858307     -3.1120330333
C     -3.0192293664     -2.8774842279     -1.8969656304
C     -3.5465471392     -1.6500059249     -2.3508111255
C     -2.7773051818     -0.7845071171     -3.1579076622
C     -3.1384920617     0.5936918835     -3.1274867905
C     -2.8953404182     -3.8013991514     0.357725109
C     -1.6046984746     -4.3424577323     0.0251834928
C     -1.0341664365     -4.1534366266     -1.2630385132
C     0.3660858237     -4.2800124095     -1.3193305746
C     -3.6142115487     -3.137658536     -0.5970196464
C     -3.057442077     -1.3995979263     3.1561728556
C     -3.630802468     -2.1761078682     2.1121460112
C     -2.8840286324     -3.3185962716     1.7300460471
C     -4.7281221544     -0.1107865521     1.2564504667
C     -4.1105791661     0.6524410519     2.3275041703
C     -3.2969919159     0.0303038896     3.2352522459
C     -4.4510773662     -2.0074749791     -0.2265949506
C     -4.4752703575     -1.5064627967     1.1100326543
C     -4.0413081203     1.1117709585     -2.1415113029
C     -4.4702928713     -1.1303816136     -1.339268839
C     -4.6524353803     0.2641197196     -1.180684361
C     -4.8093824737     0.7631267134     0.1398224941


