80 

C -3.817320 0.750610 2.298400
C -3.043460 -0.244830 3.019690
C -4.543210 0.382040 1.174540
C -3.042860 -1.570810 2.592710
C -1.813950 -2.299190 2.581580
C -1.815220 0.354610 3.435960
C -0.621060 -0.368880 3.498000
C -0.620450 -1.746430 3.054600
C 1.827040 -3.377950 0.740700
C 0.632750 -3.209190 1.446770
C 0.632030 -2.355240 2.615100
C 1.825530 -1.732670 2.991450
C -3.816930 2.417870 -0.009020
C -3.043690 2.796100 1.161050
C -4.543000 1.235240 -0.006200
C -3.043910 1.980280 2.290200
C -1.815450 1.744400 2.980220
C -1.815110 3.377030 0.720300
C -0.621390 3.212260 1.428260
C -0.621630 2.364880 2.601370
C 1.824910 -0.340370 3.439420
C 0.630710 0.383500 3.496420
C 0.630480 1.758540 3.045310
C 1.824360 2.308670 2.570230
C -3.815420 0.738590 -2.307690
C -3.041990 1.968140 -2.305410
C -4.542230 0.375950 -1.182500
C -3.042750 2.789920 -1.180590
C -1.814460 3.373060 -0.742300
C -1.813040 1.728260 -2.993380
C -0.619450 2.350450 -2.617200
C -0.620240 3.204290 -1.448780
C 1.824590 3.164950 1.384490
C 0.630840 3.443040 0.712950
C 0.631480 3.438910 -0.734190
C 1.825700 3.156880 -1.403500
C -3.814880 -1.966490 -1.420900
C -3.040710 -1.584510 -2.589110
C -4.541950 -1.008320 -0.728740
C -3.040990 -0.260810 -3.023110
C -1.812350 0.336010 -3.441560
C -1.811890 -2.313150 -2.572850
C -0.617920 -1.763330 -3.047650
C -0.618230 -0.388240 -3.498650
C 1.826500 2.293790 -2.584280
C 0.632940 1.741250 -3.056980
C 0.633620 0.363650 -3.500250
C 1.827690 -0.360240 -3.438130
C -3.816030 -1.959030 1.425810
C -3.041590 -2.952170 0.701980
C -4.542530 -1.004530 0.727990
C -3.041050 -2.955870 -0.691040
C -1.812040 -3.169630 -1.387250
C -1.813220 -3.162100 1.400690
C -0.618910 -3.443970 0.731740
C -0.618350 -3.447960 -0.715400
C 1.828000 -1.749940 -2.982160
C 0.634110 -2.370050 -2.603440
C 0.633970 -3.217340 -1.430260
C 1.827600 -3.382160 -0.721910
C 3.829750 -0.756360 -2.300410
C 3.056350 -1.985910 -2.291900
C 3.056190 -2.801430 -1.162500
C 4.555590 -0.387420 -1.176640
C 3.828490 1.953660 -1.428720
C 3.055290 1.565140 -2.595440
C 3.055930 0.239010 -3.022050
C 4.554940 0.999350 -0.730610
C 3.827320 1.962070 1.418030
C 3.053490 2.951160 0.688010
C 3.054090 2.947090 -0.705040
C 4.554340 1.003680 0.726120
C 3.827870 -0.742740 2.305710
C 3.053440 0.256710 3.020830
C 3.053200 1.580320 2.586490
C 4.554620 -0.380410 1.180380
C 3.829350 -2.422810 0.007570
C 3.055220 -2.794570 1.179140
C 3.054500 -1.972450 2.303740
C 4.555380 -1.240150 0.004400
