80 

C -4.126010 -1.214740 0.692870
C -3.393660 -2.237750 1.417330
C -4.124470 -1.218740 -0.699350
C -2.717930 -3.221170 0.733570
C -0.726730 -1.018310 3.706580
C -2.766940 -1.614700 2.564590
C -1.465860 -1.987520 2.989320
C -0.735960 -3.021120 2.249450
C 0.733120 -3.020600 2.251490
C -1.404230 -3.645830 1.182560
C 1.404330 -3.644570 1.186350
C -3.127910 2.296320 1.397850
C -3.833910 1.248920 0.717090
C -3.967720 0.019330 1.400440
C -3.187570 -0.251500 2.594770
C -1.164870 0.325970 3.808530
C -2.368020 0.747400 3.169680
C -2.401170 2.047120 2.597850
C -3.832110 1.244820 -0.736940
C -3.964410 0.011320 -1.413550
C -2.428330 3.315560 0.676700
C -2.426480 3.311670 -0.704370
C -3.124280 2.288330 -1.421610
C -1.206400 3.642190 1.405630
C 0.002360 3.940740 0.730270
C 1.207770 3.642750 1.408520
C -0.002630 1.172730 3.844990
C -0.001780 2.434930 3.194400
C -1.217750 2.885060 2.603360
C 1.215560 2.884710 2.607760
C -2.394460 2.032430 -2.618250
C -2.359880 0.729410 -3.182530
C -3.181150 -0.266340 -2.604190
C -1.155110 0.304290 -3.815500
C -1.211050 2.870410 -2.625310
C 1.222210 2.869960 -2.623260
C 0.006430 2.416800 -3.210430
C 0.007230 1.150830 -3.853640
C 0.004330 3.936600 -0.754970
C -1.202640 3.634230 -1.431760
C 1.211480 3.634780 -1.428330
C -0.717220 -1.039420 -3.704810
C -1.458250 -2.004510 -2.984230
C -2.760650 -1.629350 -2.565150
C -3.390320 -2.245920 -1.415970
C -2.716110 -3.225290 -0.724840
C 0.738940 -3.033430 -2.234670
C -0.730180 -3.033830 -2.236600
C -1.401230 -3.652520 -1.167960
C 1.407410 -3.651360 -1.164250
C 0.688270 -4.066000 0.011270
C -0.684870 -4.066740 0.009420
C 0.729980 -1.039520 -3.702880
C 2.770780 -1.627620 -2.557910
C 1.468680 -2.003490 -2.980810
C 2.403950 2.033120 -2.613110
C 2.371140 0.730570 -3.176780
C 1.168290 0.305510 -3.812840
C 3.191180 -0.265960 -2.595920
C 4.130190 -1.216930 -0.688550
C 3.397440 -2.244360 -1.406860
C 2.721390 -3.223350 -0.717670
C 4.128540 -1.212970 0.704540
C 3.132160 2.289890 -1.412520
C 3.838060 1.246230 -0.726060
C 3.972210 0.011950 -1.402500
C 3.128630 2.297980 1.405550
C 2.432150 3.316000 0.684000
C 2.433940 3.312050 -0.698700
C 3.968610 0.019970 1.410960
C 3.836300 1.250370 0.727050
C 1.158520 0.327210 3.812090
C 3.184530 -0.251210 2.603820
C 2.363050 0.748640 3.176700
C 2.397360 2.047930 2.605620
C 2.719490 -3.219170 0.741000
C 3.393860 -2.236320 1.426620
C 2.764200 -1.613080 2.572440
C 1.460940 -1.986490 2.993840
C 0.720410 -1.018390 3.708560
