86 

C -1.573630 2.298680 -3.045090
C -2.222060 1.061740 -3.162040
C -3.425640 0.890030 -2.400270
C -3.877670 -0.420280 -2.019500
C -3.206400 -1.524150 -2.470990
C -0.179840 2.421930 -3.279910
C 0.634420 1.290900 -3.538490
C -0.001100 -0.005790 -3.676820
C -1.441030 -0.103290 -3.532960
C -2.012460 -1.373360 -3.268540
C 2.190350 -1.062780 -3.273440
C 0.803840 -1.203830 -3.532400
C 2.780280 0.206860 -3.043920
C 2.033610 1.386520 -3.166810
C 2.486180 2.518180 -2.409950
C -2.679120 -3.446580 0.657890
C -3.428860 -2.647280 -0.248340
C -3.040610 -2.685920 -1.607120
C -1.845810 -3.336770 -2.014800
C 0.344360 -4.139480 -1.336280
C -1.058930 -4.063690 -1.092950
C -1.514750 -4.136360 0.252790
C 0.186910 -2.461660 -3.155540
C -1.208320 -2.517980 -3.033340
C 0.940140 -3.415960 -2.393820
C -4.088960 -1.428730 0.263940
C -4.353790 -0.366130 -0.643520
C -2.460220 -3.015490 2.032270
C -3.018140 -1.850010 2.483510
C -3.904830 -1.079540 1.621250
C -1.114020 -3.349820 2.408950
C -0.311350 -2.432860 3.166010
C 1.079000 -2.563320 3.044430
C 1.299210 -4.211800 -0.233670
C 0.848040 -4.108470 1.111660
C -0.557200 -4.108940 1.355070
C 1.672360 -3.419500 2.030030
C -3.797850 0.277890 2.025990
C -3.981850 1.331830 1.102820
C -4.296050 0.986620 -0.241230
C -3.279680 2.550110 1.341370
C -2.760370 0.368160 3.040580
C -1.952390 1.507220 3.157790
C -2.344790 2.657430 2.395240
C -0.093920 3.557070 2.467280
C -1.381900 3.654560 2.014740
C -0.861020 -1.142350 3.536360
C -2.238100 -0.929820 3.276410
C 1.942670 -1.461530 3.274060
C 1.439050 -0.161700 3.531840
C 0.006180 0.012290 3.674860
C -0.560110 1.339780 3.529920
C 0.312640 2.424970 3.265680
C -2.823870 3.388220 0.235390
C -2.987920 2.951010 -1.108570
C -3.754980 1.772470 -1.347130
C -1.964450 3.264770 -2.031160
C -0.803510 3.976060 -1.625760
C -0.576940 4.299190 -0.268340
C -1.644830 4.053590 0.638340
C 1.017320 3.935880 1.604130
C 0.807930 4.263960 0.245080
C 1.861140 3.957910 -0.660160
C 1.577320 3.566490 -2.034570
C 0.286050 3.534920 -2.486940
C 2.139040 3.166440 2.013130
C 3.848500 1.578370 1.336940
C 3.144530 2.794560 1.092370
C 3.003600 3.233270 -0.253700
C 3.126930 -1.679020 2.477370
C 3.855630 -0.614360 2.020340
C 3.473320 0.719770 2.394520
C 2.280410 0.958560 3.155090
C 1.697770 2.227390 3.031730
C 2.498250 -3.586430 -0.642080
C 3.289350 -2.823310 0.260270
C 2.899930 -2.834620 1.619200
C 3.846890 -1.292160 -1.617190
C 2.920670 -2.019100 -2.475740
C 2.302080 -3.151300 -2.018670
C 4.333410 -0.592260 0.644050
C 4.012740 -1.643890 -0.258060
C 3.414390 2.366920 -1.355340
C 4.346990 0.759720 0.235000
C 4.051180 1.114380 -1.110710
C 3.811670 0.066870 -2.028700
