86 

C 1.586950 -0.073440 3.576310
C 2.104930 1.152630 3.135870
C 3.366000 1.106250 2.480180
C 3.773860 2.147630 1.544390
C 2.927740 3.195860 1.297490
C 0.180890 -0.258610 3.765140
C -0.737690 0.731930 3.455640
C -0.232400 2.027680 2.984910
C 1.173310 2.233140 2.854240
C 1.647330 3.287660 1.993020
C -2.511060 2.556210 2.183110
C -1.146900 2.912520 2.271160
C -3.549610 -1.434010 2.181770
C -2.435400 -1.099190 2.974600
C -2.119760 0.310350 3.170010
C -2.992920 1.262690 2.648430
C 4.289490 1.910260 -0.850560
C 3.317930 2.957310 -1.128560
C 4.524050 1.524820 0.464370
C 2.732910 3.668470 -0.064650
C 1.402660 4.104740 -0.172780
C 0.630250 3.805590 -1.325360
C -0.779250 3.947990 -1.194620
C -0.637190 3.815960 1.283860
C 0.772050 3.957950 1.151880
C -1.409890 4.105350 0.128990
C 4.613500 -0.839060 -0.191400
C 4.353260 -0.443100 -1.567200
C 4.637560 0.118740 0.796800
C 4.122620 0.890930 -1.866630
C 2.987260 1.241310 -2.667280
C 3.544790 -1.451050 -2.176830
C 2.430560 -1.123490 -2.972630
C 2.114470 0.284180 -3.180700
C 1.140730 2.893920 -2.304790
C 2.504930 2.538590 -2.213450
C -1.654300 3.270500 -2.029860
C -1.179340 2.208940 -2.881730
C 0.226590 2.002750 -3.010840
C 0.732400 0.702930 -3.469940
C -0.185820 -0.290600 -3.770310
C 2.438890 -3.454820 -1.300230
C 3.955350 -2.115760 0.040550
C 3.475100 -2.561160 -1.235370
C 1.405500 -3.290520 -2.308550
C 0.101370 -1.698490 -3.545540
C 1.368420 -2.120850 -3.096240
C 1.840710 -3.945420 -0.097970
C 2.135100 -3.355990 1.146990
C 3.229730 -2.389440 1.214690
C 3.220750 -1.353520 2.256040
C 3.904210 -0.125930 2.030770
C 2.147870 -1.312780 3.157310
C 0.493800 -4.342360 -0.454320
C -0.497060 -4.338670 0.485070
C -0.208170 -3.848670 1.821080
C 1.059710 -3.315740 2.141940
C 1.082230 -2.295740 3.123350
C -1.086330 -2.322350 -3.110210
C -1.063280 -3.333820 -2.119900
C 0.204740 -3.863770 -1.794480
C -0.105920 -1.668430 3.552830
C -1.409450 -3.271670 2.329990
C -1.372860 -2.095070 3.107210
C -2.442880 -3.444990 1.322880
C -3.959640 -2.117530 -0.029690
C -3.479380 -2.552140 1.250010
C -2.152080 -1.339970 -3.152690
C -3.909030 -0.144160 -2.036980
C -3.224770 -1.373220 -2.251160
C -3.233460 -2.400400 -1.201090
C -2.138470 -3.365980 -1.124760
C -1.844110 -3.945260 0.125010
C -2.934700 3.184000 -1.333050
C -3.780140 2.133440 -1.570340
C -3.371330 1.084490 -2.496890
C -2.110220 1.125700 -3.153250
C -1.591610 -0.104000 -3.582650
C -4.295910 1.915910 0.826810
C -3.324480 2.965530 1.095380
C -2.739890 3.667900 0.025140
C -4.530090 1.519420 -0.484850
C -4.618250 -0.839070 0.191050
C -4.358530 -0.431640 1.563470
C -4.128410 0.905100 1.851380
C -4.642630 0.110510 -0.805160
