86 

C 4.435560 -1.151180 -1.320860
C 4.626580 -0.417600 -0.009540
C 4.661670 1.096620 -0.002390
C 4.411170 -1.151240 1.294750
C 3.791230 -2.521680 1.299510
C 3.254410 -3.077320 -0.002480
C 3.793770 -2.532280 -1.311590
C 3.889610 -0.389680 2.504220
C 3.649220 1.098790 2.417440
C 4.201680 1.864840 1.236060
C 2.575100 1.717030 3.285840
C 1.682940 -3.465960 2.539800
C 2.937520 -2.629420 2.558620
C 2.923900 -1.266210 3.242310
C 1.595450 -0.669820 3.664970
C 1.511860 0.804620 3.888210
C 1.313430 -4.298310 -1.306180
C 2.002240 -3.938300 -0.001310
C 1.322040 -4.288080 1.308700
C 1.886330 3.002750 2.835610
C 2.258520 3.613120 1.502160
C 3.487050 3.127000 0.765050
C 1.245080 4.455510 0.761600
C 0.408740 2.899360 3.210140
C -0.637440 3.502610 2.292780
C -0.203600 4.507620 1.241560
C -2.483430 4.114880 -0.005640
C -1.074790 4.652810 -0.003630
C -3.510380 0.772960 2.607420
C -2.221380 1.492980 2.802720
C -2.006940 2.858980 2.193350
C -3.042030 3.437790 1.243760
C 0.407000 -2.959840 3.208000
C 0.323440 -1.465200 3.460320
C -2.204110 -1.486950 2.781720
C -0.967750 -0.730270 3.196310
C -1.033660 0.747910 3.351530
C 0.166440 1.525870 3.840870
C -3.523420 -0.758380 2.628730
C 1.247070 4.456550 -0.762200
C 2.264330 3.618060 -1.501720
C 3.491750 3.132210 -0.761920
C 1.896150 3.011310 -2.837810
C 0.418290 2.892160 -3.207210
C -0.628660 3.492620 -2.291900
C -0.200240 4.505760 -1.246310
C 2.590850 1.730070 -3.286100
C 3.682900 1.122050 -2.433820
C 4.214100 1.875210 -1.236140
C 3.878800 -0.374430 -2.524070
C 1.529540 0.794050 -3.860370
C 1.591040 -0.675080 -3.525020
C 2.724970 -1.189680 -3.030320
C 1.675090 -3.504550 -2.555120
C 2.860610 -2.585310 -2.510950
C -1.024650 0.728870 -3.368090
C 0.185360 1.512260 -3.824690
C -3.520670 -0.766090 -2.635730
C -2.208810 -1.504390 -2.813740
C -0.981710 -0.760760 -3.287170
C 0.322200 -1.497340 -3.528670
C 0.397400 -2.991990 -3.224980
C -2.204310 1.471700 -2.794520
C -3.034740 3.429920 -1.254370
C -1.992370 2.840560 -2.189110
C -3.501680 0.763590 -2.614380
C -4.445580 -1.222230 -1.508580
C -4.153350 -2.502220 -0.761820
C -3.036390 -3.427360 -1.240160
C -2.073810 -2.914270 -2.293640
C -0.766600 -3.647770 -2.479930
C -4.131000 2.485000 -0.765140
C -4.965820 0.006180 -0.764460
C -4.429270 1.229640 -1.500970
C -4.154320 -2.500630 0.760990
C -4.448850 -1.218110 1.503980
C -4.968310 0.008270 0.756100
C -4.436240 1.235130 1.491790
C -4.135000 2.488500 0.753050
C -0.760140 -3.634170 2.480320
C -3.038600 -3.428050 1.243720
C -2.074000 -2.907770 2.292050
C -0.203530 -4.441400 -1.304380
C -2.423500 -4.070210 0.002510
C -0.960980 -4.460590 0.003690
C -0.197880 -4.435230 1.309930
