86 

C -2.639320 2.270420 -2.345590
C -3.335020 1.040510 -2.285590
C -4.198500 0.839830 -1.173990
C -4.541130 -0.479690 -0.730700
C -4.063980 -1.579340 -1.421140
C -1.453990 0.003040 -3.597160
C -2.771510 -0.110740 -2.968020
C -3.220150 -1.390010 -2.571420
C -0.713970 -1.170020 -3.814120
C -1.142830 -2.436530 -3.272070
C -2.345490 -2.533280 -2.630610
C -0.721740 1.250710 -3.547600
C 0.723360 1.251420 -3.546590
C -1.396880 2.389110 -3.018610
C 1.396590 2.390550 -3.016810
C -4.065980 -1.571040 1.418630
C -3.571400 -2.736930 0.691560
C -4.542190 -0.475410 0.721220
C -3.570390 -2.740970 -0.686600
C -2.431730 -3.269300 -1.388940
C -1.147600 -2.417700 3.278930
C -3.223790 -1.375050 2.569120
C -2.349370 -2.518000 2.636240
C 0.002260 -3.132320 -2.749950
C 0.001480 -3.661200 -1.446360
C -1.267660 -3.701450 -0.721090
C -1.268770 -3.697260 0.735170
C -2.433830 -3.261200 1.398730
C -0.001780 -3.116610 2.762540
C -0.000670 -3.652890 1.462010
C -0.719340 -1.148140 3.814120
C -1.458960 0.023650 3.589250
C -2.775620 -0.093590 2.958990
C -3.338180 1.053810 2.269190
C -4.200180 0.846730 1.157470
C -2.642490 2.283840 2.323140
C 0.718710 1.271670 3.534500
C -0.726460 1.270960 3.533530
C -1.400770 2.406280 2.997200
C 1.392660 2.407620 2.998980
C 0.680160 3.487230 2.382010
C -0.688500 3.486580 2.381170
C 2.345540 -2.515910 2.639480
C 1.142830 -2.416710 3.280430
C 0.713030 -1.147480 3.815000
C 3.219280 -1.372180 2.573550
C 2.769670 -0.091040 2.962700
C 1.452090 0.024940 3.591130
C 2.432280 -3.258940 1.402110
C 2.434260 -3.266820 -1.385400
C 1.268520 -3.696030 0.736940
C 1.269590 -3.700160 -0.719310
C -2.650710 3.209460 1.200460
C -3.284310 2.841380 -0.013240
C -4.094250 1.675690 -0.010510
C -2.649080 3.202520 -1.228140
C -1.421020 3.906560 -1.223960
C -0.743260 4.209120 -0.015390
C -1.422550 3.913420 1.193970
C 1.415280 3.914790 1.195730
C 0.737230 4.209870 -0.014480
C 1.416830 3.908020 -1.222200
C 0.683170 3.473700 -2.406900
C -0.685420 3.473000 -2.407760
C 2.644100 3.212030 1.203820
C 4.090670 1.679710 -0.005100
C 3.279670 2.844660 -0.009030
C 2.645650 3.205230 -1.224760
C 4.063210 -1.567240 1.424240
C 4.539470 -0.471100 0.727450
C 4.195800 0.850760 1.163090
C 3.332180 1.056940 2.273590
C 2.635330 2.286380 2.326530
C 4.065170 -1.575380 -1.415310
C 3.571490 -2.737470 -0.681460
C 3.570530 -2.733570 0.696630
C 4.540500 -0.475220 -0.724420
C 1.147490 -2.435420 -3.270340
C 3.222840 -1.386830 -2.566800
C 2.349310 -2.530930 -2.627160
C 2.638320 2.273150 -2.342180
C 4.197350 0.844040 -1.168360
C 3.335210 1.043920 -2.281130
C 2.773680 -0.107980 -2.964150
C 1.456950 0.004430 -3.595020
C 0.718320 -1.169350 -3.813000
