86 

C 2.238560 1.639510 -3.090780
C 0.977560 2.246320 -3.210250
C 0.766900 3.420770 -2.434230
C -0.555090 3.889220 -2.136660
C -1.644940 3.189180 -2.620410
C 2.422120 0.251520 -3.364700
C 1.314560 -0.596920 -3.604050
C -0.006690 -0.007670 -3.739300
C -0.156630 1.431040 -3.601620
C -1.444470 1.965510 -3.358030
C -0.995620 -2.240000 -3.358520
C -1.177260 -0.857030 -3.599630
C 0.298750 -2.774520 -3.087090
C 1.454490 -1.986110 -3.210720
C 2.578940 -2.389860 -2.437010
C -1.667020 4.203100 0.032270
C -2.838370 3.498510 -0.491800
C -0.555320 4.379690 -0.767280
C -2.823850 3.016350 -1.786620
C -3.366910 1.716680 -2.061840
C -3.911080 0.914480 -1.032630
C -3.988150 -0.471880 -1.285410
C -2.449360 -0.283110 -3.203950
C -2.554000 1.112110 -3.082240
C -3.359190 -1.053960 -2.426620
C 0.952920 3.726890 1.099860
C -0.220100 3.564550 1.952900
C 0.754210 4.159460 -0.223530
C -1.493650 3.828530 1.404950
C -2.641960 3.016780 1.763160
C -2.541320 2.094230 2.775100
C -1.318120 1.972540 3.516650
C -0.152770 2.665420 3.101420
C 1.091500 2.078680 3.424510
C -3.840870 1.368050 0.345540
C -3.376240 2.682640 0.570770
C -3.119920 0.787480 2.622650
C -3.707300 0.378250 1.414000
C 2.254160 2.299170 2.613200
C 2.190620 3.011070 1.403710
C 3.112060 2.630760 0.333540
C 3.096990 1.145120 2.765380
C 3.943940 0.769970 1.751920
C 4.018770 1.571430 0.558210
C 2.382000 0.147520 3.510270
C 2.398370 -1.208780 3.097160
C 1.268980 -1.992700 3.424270
C -1.246630 0.620880 3.988070
C 0.006090 -0.008330 4.201810
C 1.176820 0.761820 3.983670
C 0.087090 -1.407520 3.985660
C 2.751100 2.916480 -1.044200
C 1.588390 3.676010 -1.295220
C 4.453810 0.696300 -0.504130
C 4.025780 0.922940 -1.798280
C 3.171210 2.042680 -2.073220
C 4.479680 -0.669770 0.021990
C 3.583810 -0.185690 -2.629140
C 3.646320 -1.478850 -2.143480
C 4.074730 -1.722000 -0.774900
C 3.208020 -1.601260 1.947160
C 4.071910 -0.630850 1.395550
C 3.230640 -2.745300 -0.227550
C 2.759980 -2.699510 1.096990
C -0.543990 -3.263790 2.771760
C 0.876610 -3.110940 2.615720
C 1.522010 -3.413200 1.404960
C -1.294940 -3.810900 1.761040
C -0.641120 -4.277740 0.566290
C 0.729120 -4.022350 0.337710
C -2.345840 -0.110710 3.430680
C -2.232570 -1.481240 3.105290
C -1.048660 -2.144710 3.516270
C -3.524540 -2.681140 -0.761660
C -3.987340 -1.437750 -0.215070
C -3.709150 -1.051330 1.108130
C -2.813980 -3.557120 0.034730
C -2.573090 -3.221670 1.407120
C -2.980180 -1.987530 1.957850
C -1.212080 -3.962360 -1.788950
C -1.953290 -3.026520 -2.619260
C -3.103190 -2.433560 -2.131630
C -1.619260 -4.218330 -0.493450
C 2.392140 -3.227390 -1.296360
C 1.153600 -3.854250 -1.041250
C 0.184140 -3.782490 -2.067780
