86 

C 0.049100 1.861490 -3.360450
C 0.520960 0.547680 -3.421660
C 1.942800 0.326870 -3.187160
C 2.412910 -0.994420 -2.813120
C 3.683090 -1.106850 -2.202340
C 3.975970 -2.158340 -1.267610
C 1.448660 -2.065250 -2.628120
C 1.835150 -3.160340 -1.845120
C 3.052640 -3.162980 -1.084940
C -0.941270 -2.781540 -2.299730
C -2.311110 -2.477580 -2.325080
C -1.865040 -0.227830 -3.184820
C -0.452240 -0.548510 -3.269830
C 0.007620 -1.836020 -2.849600
C -2.771840 -1.226540 -2.788630
C -1.320750 2.157960 -3.024780
C -3.476220 1.442720 -2.282440
C -2.299140 1.155900 -3.009380
C 4.270530 -1.948730 1.159500
C 3.242740 -2.953300 1.342300
C 4.685310 -1.597600 -0.127580
C 2.744870 -3.637720 0.251270
C 1.363920 -4.055960 0.253710
C 0.505520 -3.745470 1.339670
C -0.861630 -3.883650 1.101640
C -0.508290 -3.751430 -1.302530
C 0.858990 -3.887290 -1.063950
C -1.366390 -4.058270 -0.215250
C 4.865600 0.760180 0.546710
C 4.348790 0.398100 1.847030
C 4.971140 -0.215930 -0.441050
C 4.022870 -0.911010 2.132190
C 1.311560 2.171660 3.037690
C 3.467690 1.455650 2.298410
C 2.290980 1.170550 3.026520
C 0.937440 -2.771190 2.333050
C 2.306930 -2.465740 2.357180
C 2.766280 -1.212290 2.815640
C 0.445990 -0.534720 3.294240
C 1.858400 -0.212920 3.207630
C -0.012430 -1.824420 2.879230
C 3.944070 1.306870 -2.071440
C 3.925880 2.359090 -1.066720
C 4.419190 0.055010 -1.759710
C 4.321770 2.066990 0.222510
C 3.472850 2.492250 1.317180
C 2.321990 3.285590 1.101180
C 1.329030 3.229120 2.095380
C 0.840530 2.911270 -2.780530
C 2.759380 1.435940 -2.881020
C 2.169630 2.701360 -2.530870
C 1.912640 3.619920 -0.258440
C 2.745460 3.171790 -1.302410
C 0.030610 3.618780 -1.834160
C 0.493760 3.868690 -0.540470
C -2.332390 3.278720 -1.092870
C -1.339350 3.219260 -2.086800
C -3.482510 2.483270 -1.305520
C -1.923380 3.618940 0.265380
C -0.041320 3.626160 1.841020
C -0.504760 3.870370 0.546340
C -2.755690 3.174110 1.311200
C -3.952270 1.311090 2.088050
C -3.935320 2.359210 1.078970
C -4.331010 2.061510 -0.209010
C -4.426010 0.057470 1.781540
C -0.850490 2.921670 2.790220
C -2.767710 1.444820 2.897070
C -2.179380 2.709400 2.541530
C -3.056000 -3.161650 1.119840
C -1.838540 -3.154580 1.880020
C -1.453230 -2.055950 2.658710
C -3.980380 -2.157240 1.298500
C -3.688620 -1.101660 2.228980
C -2.418630 -0.985340 2.839410
C -1.949980 0.337950 3.207940
C -0.528400 0.561140 3.441380
C -0.057990 1.875080 3.374370
C -4.275320 -1.957870 -1.129520
C -3.246410 -2.962040 -1.308250
C -2.747780 -3.641470 -0.214460
C -4.690390 -1.601980 0.156180
C -4.873420 0.752780 -0.527770
C -4.356210 0.386020 -1.826600
C -4.028810 -0.923870 -2.106410
C -4.977780 -0.219420 0.464010
