32

 C     -2.7637559011     0.6201474809     0.3044243816
C     -2.7637592016     -0.6201271603     -0.3044359782
C     -2.102751014     -1.572634448     0.5378141695
C     -2.038662084     0.5196630534     1.5987771481
C     -1.5653168454     -0.8570455555     1.725784878
C     -1.145325537     1.5801117885     1.636728206
C     -2.1027372712     1.572650028     -0.5378229628
C     -1.2436745799     2.3176013621     0.3144247481
C     -2.0386592855     -0.5196480825     -1.5987856786
C     -1.5653032685     0.8570570198     -1.7257913688
C     -1.2436904637     -2.317592267     -0.3144298757
C     -1.1453303192     -1.5801034112     -1.6367327905
C     0.0405688363     -2.6106285024     0.0940443314
C     -0.2160938868     -1.0715614218     2.0781731795
C     0.5330869063     -2.1481181043     1.3872007635
C     0.2550590972     1.3975347832     1.9349456496
C     0.7150521857     0.0753613126     2.2371083856
C     0.0405887007     2.6106282579     -0.0940438419
C     0.9924364963     2.1983036427     0.9597849551
C     -0.2160771437     1.071562827     -2.0781740901
C     0.5331088216     2.1481139958     -1.3871984037
C     0.2550567683     -1.3975369152     -1.9349444082
C     0.9924241309     -2.1983111072     -0.9597806829
C     0.7150610253     -0.0753667648     -2.2371053452
C     1.8276367125     -1.6896512575     1.1600038305
C     1.9809508987     -0.3456285934     1.6541711035
C     2.1276735178     -1.6975298157     -0.298743511
C     2.127685028     1.6975138327     0.2987524502
C     1.8276544606     1.6896378465     -1.1599963772
C     1.9809604236     0.3456137102     -1.6541627146
C     2.6030665997     0.4164035552     0.6299077704
C     2.6030661919     -0.4164230899     -0.6298969215


