48

 C     3.5901491253     1.0105236702     -0.6297075946
C     3.7092862238     -0.0546841311     0.3453455412
C     3.373173533     -1.2359845667     -0.3083750505
C     3.0029359452     0.5051244703     -1.8578463044
C     2.9165395483     -0.8965924866     -1.6928176009
C     1.8368878707     1.2800718707     -2.1573056513
C     2.7862317606     2.0250714808     -0.114367986
C     1.7936925285     2.3471856001     -1.1226450807
C     2.9511953462     0.3574737526     1.5260787155
C     2.3580266233     1.6716637766     1.2319754291
C     2.1733449112     -0.5853170943     2.1794025926
C     2.4396021336     -2.149504173     0.2595193599
C     2.0057255005     -1.935998018     1.5991701097
C     1.7002659595     -1.5427809742     -1.8955904358
C     1.448935858     -2.4551094042     -0.7462249566
C     0.6167844288     0.6520382526     -2.5334739269
C     0.5894018219     -0.8340305576     -2.495263034
C     -0.6588620969     1.3752807179     -2.3036945583
C     0.6035591482     2.8300041611     -0.6856441317
C     -0.631432926     2.5184244691     -1.3996252335
C     1.0559947316     2.0319296825     1.6749285021
C     0.2977495827     2.8741220668     0.761177908
C     0.8904783051     -0.1934754471     2.7798410077
C     0.3008141716     1.0978423206     2.5405251116
C     0.7078503666     -2.3550869664     1.9369126951
C     0.0650114683     -1.3419760494     2.7647226391
C     0.1287874845     -2.8341083909     -0.4100224185
C     -0.2437100479     -2.8270043459     0.9946793224
C     -0.6566657998     -1.482545591     -2.419544361
C     -0.8975687934     -2.5382064623     -1.3716197427
C     -1.8845763372     0.6634556769     -2.3652853312
C     -1.8671767076     -0.7712591842     -2.6188520782
C     -2.9629545148     0.9115929502     -1.3943278367
C     -1.6876346917     2.7801319284     -0.5168415448
C     -1.0912496044     2.9480850508     0.8396333867
C     -2.7978280318     1.8998285626     -0.4123682482
C     -1.1429378022     1.1464723039     2.5242182077
C     -1.812001306     2.1303063453     1.7194363756
C     -2.90698972     1.5291078169     0.9958171247
C     -1.3138205628     -1.3032489796     2.4479441304
C     -1.5520912146     -2.302873347     1.3842040878
C     -1.9403178901     -0.062784353     2.4019595491
C     -2.998948963     0.1705424492     1.3989284823
C     -2.2278967879     -2.3962698629     -0.963752787
C     -2.8421526396     -1.37387265     -1.7839532957
C     -3.4190925269     -0.3886941173     -0.9582924618
C     -2.5304430174     -2.0844925247     0.4244757655
C     -3.2760733953     -0.8103786988     0.4265456073


