48

 C     3.486089792     -1.5529696415     0.8360611345
C     3.2357968664     -0.3108233098     1.5740913979
C     3.5314530835     0.7618542559     0.7509892882
C     3.5499853295     -1.1625429205     -0.5900569492
C     3.7477819613     0.2104583767     -0.6478529356
C     2.4012800144     -1.7209752836     -1.2838391055
C     2.3616987191     -2.3266210694     0.9935602249
C     1.8158865287     -2.6408859227     -0.3312163765
C     1.9160689409     -0.3878672539     2.2066640231
C     1.4092062871     -1.7035425308     1.9382956294
C     1.0260292284     0.7322040706     2.2240429465
C     2.6445179304     1.866360188     0.6631857782
C     1.4658295368     1.939782956     1.5008936558
C     2.9697559058     0.993393563     -1.504369771
C     2.4665811448     2.1220893656     -0.7450536162
C     1.4996535353     -0.9073061872     -2.0950173018
C     1.8428601689     0.4768677525     -2.2343991433
C     0.0684623689     -1.2770081118     -2.1723408672
C     0.500753656     -2.9619545582     -0.4051568881
C     -0.3170758216     -2.488999939     -1.5096545625
C     0.0319017715     -1.9856040725     1.8374519248
C     -0.3449591067     -2.9536610551     0.8061565641
C     -0.4175541441     0.4507728587     2.3571893423
C     -0.9308521518     -0.9373055737     2.1912417211
C     -1.323083479     1.5275008743     2.1103578938
C     0.4657301073     2.8496328188     1.0444707596
C     -0.8429138692     2.744212882     1.520186914
C     1.2454458471     2.5425870908     -1.2874712777
C     0.7866769523     1.4894453752     -2.1865056932
C     0.3487960666     3.1672220007     -0.4170807138
C     -0.9911109048     -0.24778871     -2.3304451265
C     -0.5966943512     1.1811069008     -2.2427874311
C     -2.3393851499     -0.577302999     -1.9669074854
C     -1.65566347     -2.7485937924     -1.1311911024
C     -1.6577847083     -3.0142367051     0.3614356296
C     -2.6700818578     -1.8700920879     -1.4270124122
C     -2.2950589827     -1.1280153517     1.7846608565
C     -2.6597535814     -2.2209702109     0.9233053078
C     -3.4597915507     -1.6807794023     -0.1863988349
C     -2.6323219853     1.2861294929     1.4992843477
C     -3.1304641976     0.3773744671     -1.1759255477
C     -3.0857762952     0.0163094288     1.3210527631
C     -3.6724575188     -0.3472305208     0.002234751
C     -1.7815099639     3.1672814018     0.4583143855
C     -1.0074608634     3.1971774428     -0.7743310161
C     -1.4993413596     2.1417281843     -1.6226381248
C     -2.7768924069     2.2396764259     0.3672520348
C     -2.7302540233     1.6719120366     -1.0047259916


