48

 C     -3.6995978176     1.2755580203     0.6045192205
C     -3.6977243568     0.1111721312     1.4119535726
C     -2.4986443506     0.1833665086     2.2811429939
C     -2.5023019917     2.065664264     0.9785165299
C     -1.7837471001     1.3766810093     2.0052232229
C     -1.785442102     2.4228758177     -0.1924210272
C     -3.6994701922     1.158420254     -0.8077088363
C     -2.5017871424     1.8781060305     -1.3031064501
C     -3.6972762134     -0.123185115     -1.4121202541
C     -3.6955097276     -1.1701306486     0.8072944992
C     -3.6952021285     -1.2872011659     -0.6045724556
C     -1.7794176573     -1.049887812     2.1977468149
C     -2.4946606789     -1.8855327857     1.3025809599
C     -0.3460787036     -1.0641085181     2.2327651327
C     -0.3503470585     1.4011084995     2.0373531819
C     0.3472975688     0.196141043     2.4653213108
C     -0.3520295873     2.4641787912     -0.1955041485
C     0.3438747068     2.232948644     1.0634104935
C     0.3444298633     2.0377239277     -1.4015702051
C     -1.782842318     1.042979556     -2.1972091694
C     -2.4976717634     -0.1914740671     -2.2810983666
C     -0.3494552335     1.0620801721     -2.2322926087
C     -2.4942024925     -2.0729380223     -0.9781664116
C     -1.7769151469     -2.4300529176     0.1925305751
C     -1.7786375558     -1.3833719645     -2.0051607142
C     0.3512450437     -2.0365613629     1.4022000835
C     -0.3435600911     -2.46616334     0.1958230922
C     1.784794281     -2.0026860348     1.3804224888
C     1.7808066517     0.1955420626     2.4272102856
C     2.4994464902     -0.9853732116     2.0630551205
C     1.7773485188     2.2009858413     1.0468297023
C     2.4954646304     1.2961936793     1.8885263691
C     1.7779657059     2.008548007     -1.3800689981
C     2.4941547788     2.2862576232     -0.1747317912
C     2.4968945358     0.9942331507     -2.0641229136
C     0.3483457131     -0.1948843301     -2.4647560875
C     -0.3452635234     -1.4030003141     -2.0369460633
C     0.351735897     -2.2317894387     -1.0628913877
C     1.7819077695     -0.1894721304     -2.4266048068
C     2.5020588776     -2.2777564908     0.1745458372
C     1.785276739     -2.1947936716     -1.0465306868
C     2.5008261122     -1.2882861935     -1.8894765861
C     3.698425322     -0.6074045614     1.2766825212
C     3.6960253001     0.80533311     1.1697815978
C     3.6948687549     1.4192716141     -0.1071673927
C     3.6961063952     0.62023075     -1.277466011
C     3.6998227887     -1.4066186437     0.106775689
C     3.6986594888     -0.7929307667     -1.1705199226


