48

 C     -3.9430074139     -1.1095310692     -0.1488491391
C     -3.2055723694     -1.0717253394     -1.3859002098
C     -3.0257797596     0.2535893299     -1.8466766705
C     -3.9220122897     0.2785069663     0.3138936025
C     -3.4607174221     1.1312882431     -0.7292737797
C     -3.2909313564     0.3670685118     1.5871390429
C     -3.0839192002     -1.8060102681     0.7520009676
C     -2.7625425579     -0.9759424932     1.8623537614
C     -2.0306927825     -1.9041664286     -1.3263473411
C     -1.9401015985     -2.3587591962     0.0439931406
C     -0.8337383383     -1.5443411907     -2.0142310294
C     -1.777991768     0.705194285     -2.3217801954
C     -0.6565413366     -0.1961478408     -2.5223036685
C     -2.4421803456     2.0767773251     -0.5062281933
C     -1.5168676591     1.9643318702     -1.6491663078
C     -2.2370472169     1.2799964917     1.822465895
C     -1.8483660036     2.2432161798     0.8224009934
C     -1.4471234321     -0.8679704461     2.3706816685
C     -1.1442037649     0.5281548269     2.4656652311
C     -0.6643025383     -2.5313773669     0.6860265378
C     -0.4005903152     -1.7903648451     1.9437770936
C     0.331283775     -2.2711431908     -1.5820947886
C     0.4214494014     -2.7553096034     -0.1759267545
C     1.5975208131     -1.9117248092     -1.9891712896
C     0.7123291761     0.3619706767     -2.548786596
C     1.8465441497     -0.5454564208     -2.4208098957
C     -0.2306467055     2.4489593027     -1.5603559081
C     0.907631099     1.7016096278     -2.0976983196
C     -0.5026679431     2.7261380417     0.8743065003
C     0.188517471     3.0138097231     -0.3240208565
C     0.2140254446     0.977059132     2.4714150337
C     0.516286383     2.1712794695     1.7733132901
C     0.9180057598     -1.4465505852     2.2378830538
C     1.2459041998     -0.0433412498     2.6027111016
C     1.7948768545     -2.6281423983     0.2472473103
C     2.5569481226     -2.2350557236     -0.9143717965
C     2.0496121031     -1.9741968412     1.4842827937
C     3.0542685401     -0.1398362353     -1.8015767307
C     3.4816536734     -1.2061741681     -0.8539485745
C     2.0784452358     2.0497387465     -1.2915889415
C     1.6170053553     2.7895971048     -0.1699870077
C     1.8421350666     2.3196818139     1.149132031
C     3.1233044541     1.1028485275     -1.1004137842
C     2.556889376     0.2121531449     2.2091694192
C     3.0984107948     -0.997530296     1.5491366608
C     3.7845496549     -0.5950493169     0.3981948585
C     2.8505583409     1.3511726043     1.3730427891
C     3.5793898731     0.8517043775     0.241275002


