48

 C     4.0589535177     -0.8309627383     0.2375883434
C     3.643710755     0.2285014838     1.1000788166
C     3.4147162484     1.4249575065     0.3548528156
C     3.7735258909     -0.3546648769     -1.1134961499
C     3.3765000006     1.0222797513     -1.0462418249
C     2.8704970358     -1.2277496738     -1.7375783368
C     3.1300852655     -1.9028171413     0.4707327512
C     2.5513139318     -2.2933090594     -0.761651692
C     2.5798135654     -0.2240165413     1.9908413045
C     2.2290196142     -1.5780935965     1.5810274206
C     1.5639508484     0.6704282349     2.3531659211
C     2.293655571     2.2531000053     0.6169898926
C     1.4583453075     1.9720078521     1.7148824331
C     2.1766521362     1.5123527613     -1.6320965731
C     1.6285586617     2.4804325901     -0.6768812837
C     1.6316004013     -0.7810116697     -2.2960459723
C     1.2428575588     0.6181781724     -2.2887717154
C     1.1850837446     -2.5569983802     -0.8307104988
C     0.6150295975     -1.7255617249     -1.9063051242
C     0.8736405813     -1.9901744245     1.5627262022
C     0.397028149     -2.6626402646     0.3544312078
C     0.212607804     0.1966986898     2.5484888848
C     -0.1382421399     -1.1553759724     2.256762248
C     0.0461947115     2.3131786383     1.6608072463
C     -0.7362618812     1.2726698794     2.278559601
C     0.3113233144     2.81986916     -0.7282399769
C     -0.4759326402     2.9431142559     0.5147167066
C     -0.1898256236     0.9419936277     -2.3040488618
C     -0.5746965071     2.1997950118     -1.7083479592
C     -0.770511526     -1.4722763522     -1.9980413071
C     -1.2177581907     -0.117999438     -2.3394932985
C     -0.9922690602     -2.741744608     0.1098186653
C     -1.5804505105     -2.3068865706     -1.1502703455
C     -1.521843731     -1.4076809072     2.057520677
C     -1.9471169323     -2.4680218188     1.1387809097
C     -2.0999128842     1.0198354813     1.9149677851
C     -2.519455512     -0.3580076655     1.9657837615
C     -1.8324615734     2.7517400283     0.1910411355
C     -1.9036001801     2.4245607062     -1.2572007273
C     -2.6982336171     1.8874018645     0.8993426382
C     -2.5896997535     0.1998561736     -2.0032014063
C     -2.8873611743     1.4852884176     -1.4291668323
C     -3.5552977763     1.2720925378     -0.1187524073
C     -2.9392238339     -1.972528865     -0.8573373965
C     -3.1989995721     -2.1610129834     0.5852813683
C     -3.5365337541     -0.8530371348     1.0548569438
C     -3.4108723892     -0.7339138795     -1.2774840676
C     -3.9481034497     -0.0338435431     -0.0526819223


