48

 C     -4.0693943306     -0.2041010389     -1.1033029648
C     -4.4299054285     -0.0297082009     0.2201538284
C     -3.9801453378     -1.1896942045     0.9653607563
C     -3.2836329241     -1.4610398437     -1.2605069387
C     -3.2115590474     -2.0507049927     0.0141251529
C     -2.0842192157     -1.1121612047     -1.9414868031
C     -3.2591624929     0.8963786035     -1.5872494769
C     -2.0917750773     0.3561195929     -2.1633777008
C     -3.6926791318     1.1702407856     0.6805631339
C     -3.0862455654     1.8285198266     -0.4712837286
C     -2.9995193602     -0.7132952338     1.8322199695
C     -2.8328997619     0.7569181967     1.7196610147
C     -1.9108634711     -2.3224825586     0.546239741
C     -1.7781667561     -1.5067286337     1.7465215687
C     -0.8407397097     -1.6843368491     -1.5805960799
C     -0.7589537258     -2.3458601087     -0.2860520483
C     0.3804060735     -1.0772709726     -2.1054850483
C     -0.8373274756     1.0786498012     -2.141399168
C     0.3946140872     0.3524599253     -2.3899644073
C     -1.837316133     2.3989222018     -0.3098952955
C     -0.784295875     2.2291295415     -1.3076260448
C     -1.5192398826     1.3104266227     1.8845971952
C     -1.1259387829     2.3202164074     0.966993067
C     -0.5365390504     -1.0055021669     2.1550416609
C     -0.4220249578     0.4506778399     2.3801710121
C     0.5237885452     -2.3722270195     0.391795334
C     0.6399672357     -1.7383930631     1.6888629448
C     1.5893791581     -1.7047080441     -1.7234888482
C     1.6698044571     -2.3920587686     -0.4552869562
C     2.880331285     -1.0468053542     -1.9170138075
C     1.6431846048     1.0620403894     -2.2148034933
C     2.864552919     0.3848261287     -2.0927003151
C     0.4774404745     2.6120189586     -0.7180617737
C     0.267200488     2.6252934126     0.7230529534
C     1.6717325964     2.1510628359     -1.2315121761
C     0.8752931657     0.988566453     2.392417958
C     1.2589243745     2.1145598973     1.5418855645
C     1.9308920797     -1.2523726289     2.0750868484
C     2.0120198265     0.1217472957     2.4105250008
C     3.0108570354     -2.1572553955     0.0568602682
C     3.7993224023     -1.4133222019     -0.9231072037
C     3.1084315679     -1.5348711514     1.2944975423
C     3.659051862     0.9473593246     -1.0016544001
C     2.848777889     1.9460398973     -0.3722743512
C     2.6194951435     1.8835626332     1.0353902289
C     3.1521669218     0.7492008068     1.7429858277
C     4.2056657234     -0.1604571304     -0.2700558349
C     3.8892415772     -0.2595816116     1.1031782934


