48

 C     -3.4773453895     -0.9637370293     0.539435613
C     -2.8015275709     -2.1018202668     0.1469369609
C     -2.4077770645     -1.9299212655     -1.2708947568
C     -3.6018041176     -0.0946125863     -0.6499675138
C     -2.7862242286     -0.6274973367     -1.7213084265
C     -3.4610808464     1.2158494988     -0.2269077176
C     -2.9789560293     -0.1466345289     1.6334988693
C     -3.0662447775     1.2218167415     1.2248674263
C     -1.8284258134     -0.590764928     2.3319811493
C     -1.655323777     -2.5731808915     0.8587470185
C     -1.2178617608     -1.8701611868     2.002036023
C     -1.1247746033     -2.4647446796     -1.4528105803
C     -0.6683346116     -2.9979751012     -0.148869985
C     -0.2027943633     -1.7545525352     -2.248993185
C     -1.7679718635     0.2154493042     -2.3393444041
C     -0.5043034108     -0.3978333341     -2.6525288608
C     -2.5928807918     2.0721255338     -0.9075435859
C     -1.7197580221     1.6076772198     -1.9527300436
C     -1.9875939129     2.1028262805     1.3664359854
C     -1.8171563642     2.7994472356     0.0806948895
C     -0.7501885352     0.3329709299     2.6159393384
C     -0.7900023519     1.6864515713     2.1072516346
C     0.2027923613     -1.7545537344     2.2489924424
C     0.5043028975     -0.3978350173     2.6525286826
C     0.6683312634     -2.9979759658     0.1488687044
C     1.1247718483     -2.4647466056     1.4528095565
C     1.2178596537     -1.870161707     -2.0020368585
C     1.6553209302     -2.573182441     -0.8587481332
C     0.7501888104     0.3329712506     -2.6159392177
C     1.8284251564     -0.5907660107     -2.3319814389
C     -0.4472648494     2.2598622068     -1.733537542
C     -0.5556675364     2.9989848275     -0.4373562442
C     0.7900041726     1.6864515394     -2.10725091
C     0.4472672665     2.2598609946     1.7335386022
C     0.5556708109     2.9989841551     0.4373574649
C     1.7679720617     0.2154463501     2.339344512
C     1.7197597751     1.6076745275     1.9527307684
C     2.4077749698     -1.9299245769     1.2708940163
C     2.8015253056     -2.101823409     -0.1469378616
C     2.7862235574     -0.6275011928     1.7213082186
C     2.9789559665     -0.1466371964     -1.6334990337
C     3.4773444351     -0.9637407106     -0.53943605
C     3.6018041273     -0.0946168641     0.6499675117
C     1.987596262     2.1028247109     -1.3664352116
C     1.81715943     2.7994453482     -0.0806936698
C     2.5928830737     2.0721223482     0.907544522
C     3.0662461699     1.2218139093     -1.2248669295
C     3.4610822864     1.215845618     0.2269082497


