48

 C     2.6227425042     -2.6005112211     -0.2476572185
C     2.2944348273     -2.2797186913     1.1499997269
C     2.7097851166     -0.9704412648     1.4491598875
C     3.0669240877     -1.4056235929     -0.8511863272
C     3.286824373     -0.4485323288     0.1791028845
C     2.1366151665     -1.02818984     -1.932940355
C     1.3984200597     -2.9341930074     -0.8538504991
C     1.0981616548     -2.0169769926     -1.9551513776
C     0.9497241447     -2.7092255327     1.4289191141
C     0.3981743707     -3.2125022463     0.143435167
C     0.126437869     -1.914287032     2.2232643165
C     1.8468137107     -0.0898499945     2.2213544446
C     0.562948734     -0.5893932645     2.6232760847
C     1.9431469139     1.3142805942     1.9643475029
C     3.1941800545     0.9031548324     -0.1303308205
C     2.8279831529     1.819209111     0.8954530827
C     1.8488145087     0.34906055     -2.1931483221
C     2.56883251     1.340660901     -1.4091373856
C     0.5142419919     0.6650267448     -2.6151987255
C     -0.2608338087     -1.684748309     -2.2348163586
C     -0.5354382714     -0.3389740761     -2.6579948782
C     -0.9218725024     -2.9935580792     -0.1729056529
C     -1.2922956513     -2.3621399967     -1.4632599729
C     -1.3159148237     -1.869678044     1.9846257333
C     -1.8477982689     -2.5048601668     0.8468617474
C     -0.6167063363     0.2581168164     2.6492752388
C     -1.7883968364     -0.5481263775     2.347604204
C     0.7770735318     2.1483297745     1.9692562532
C     -0.5264662174     1.6294478614     2.2288794063
C     2.2303961905     2.9408467451     0.2841869095
C     1.9709978744     2.5793167428     -1.1182770613
C     0.9627609506     3.0996869087     0.871686231
C     -0.1084730505     1.9154529063     -2.2233192741
C     0.5839773047     2.8168601134     -1.4176497739
C     -0.0515347267     3.236859198     -0.140909754
C     -1.8121475307     0.2954453664     -2.3748151145
C     -1.5339544771     1.6697428261     -2.0059488657
C     -2.5360402532     -1.7548893956     -1.2783943229
C     -2.9338352737     -1.8868332186     0.1492461605
C     -2.8411898116     -0.428401082     -1.7178168993
C     -2.8983788502     0.0258364623     1.674728987
C     -3.4877524875     -0.6991017532     0.5675269918
C     -3.5421792932     0.2061371211     -0.6202993263
C     -1.6304556316     2.1571632387     1.4411980541
C     -1.332561014     2.8352964245     0.1559241336
C     -2.1662627828     2.2234081816     -0.8772528449
C     -2.7742903891     1.3822419273     1.2380698075
C     -3.1656313145     1.4591721595     -0.1951229388


