48

 C     -3.1923834686     -1.8097555727     -0.0000975779
C     -3.5477360239     -0.4703826041     0.0000234962
C     -3.1133664169     0.1139541547     -1.2754516226
C     -2.4181412247     -2.1186683253     -1.1835911146
C     -2.3803945967     -0.9270403811     -2.0065245275
C     -1.2220625631     -2.70926637     -0.7583283285
C     -2.4180989296     -2.1188713756     1.1833155075
C     -1.2220353248     -2.7093961338     0.7579085075
C     -3.1133204284     0.1137356094     1.2755826281
C     -2.3803219499     -0.9273840761     2.0064512261
C     -2.6344190125     1.4194390099     1.2653408597
C     -2.6344647583     1.4196560412     -1.2650029696
C     -2.5468116196     2.1177572069     0.0002269632
C     -1.4399763039     1.7900501818     -2.032894691
C     -1.1780824135     -0.5927970449     -2.6370357449
C     -0.73024093     0.7974409981     -2.7062669387
C     -0.0000275555     -2.458736026     -1.4582163999
C     -0.0000449719     -1.4195408915     -2.4643324663
C     1.2220328701     -2.7092673214     -0.7583726
C     0.0000252931     -2.4589855904     1.4577953518
C     1.2220600823     -2.7093973758     0.7578642394
C     -1.177987861     -0.5932493145     2.6369775831
C     0.0000436887     -1.4199638059     2.464090791
C     -1.4399032038     1.7897014667     2.0332528851
C     -0.7301436158     0.796977036     2.7064299375
C     -1.3883942828     2.9286704757     0.0002757884
C     -0.6983981588     2.7841388555     -1.2596944629
C     -0.6983528748     2.7839228077     1.2601962222
C     0.6983555319     2.7841385308     -1.2597193468
C     0.7301443505     0.7974403847     -2.7062931299
C     1.1779872149     -0.5927981891     -2.6370781802
C     1.439904917     1.7900489786     -2.0329465385
C     2.4180969306     -2.1186707441     -1.1836784596
C     2.3803213596     -0.9270424914     -2.006610186
C     2.4181393852     -2.1188734215     1.1832281688
C     3.1923818127     -1.8097585095     -0.0002125689
C     1.1780820369     -0.5932503335     2.6369351421
C     0.7302417034     0.7969763019     2.7064037294
C     2.3803935604     -0.927386387     2.0063656129
C     0.6984007465     2.7839218558     1.2601713426
C     1.3883970463     2.9286692037     0.0002258957
C     1.4399779749     1.7897000217     2.0332010504
C     2.6344203693     1.419653429     -1.2650978231
C     3.1133210796     0.113951427     -1.2755634818
C     3.5477356697     -0.470385889     -0.0001042394
C     3.1133660866     0.113732572     1.2754707537
C     2.5468136467     2.1177548739     0.0001356821
C     2.6344661317     1.4194367517     1.2652460343


