48

 C     2.5945365847     2.6733803979     -0.1243895859
C     3.2165184785     1.4792550507     0.1576826545
C     3.16014756     0.5855021811     -1.0118451637
C     1.8244280351     2.433552009     -1.3608257897
C     2.1509794602     1.1464175343     -1.9111008784
C     0.4898542969     2.8124284368     -1.1673739532
C     1.6033441891     2.8893833722     0.9052260777
C     0.3800040035     3.1636663098     0.2823900937
C     2.7385518826     0.9606749968     1.4613891603
C     1.6451328843     1.8011216477     1.8717108453
C     2.695817357     -0.4207405936     1.6331593809
C     3.2345251106     -0.7719381009     -0.7766169043
C     3.1952738987     -1.2851714548     0.6000952029
C     2.4051118116     -1.6290034919     -1.5812079684
C     1.1130401207     0.3216087741     -2.4612501556
C     1.3236361464     -1.110040207     -2.3419979829
C     -0.5834795095     2.1031609881     -1.8062023912
C     -0.2703419644     0.8259234769     -2.4882674274
C     -1.8838736775     2.2909944466     -1.2122546392
C     -0.7973760248     2.8384418721     0.9738607081
C     -1.9476557502     2.641797254     0.2076571136
C     0.4241432255     1.2178766373     2.39881146
C     -0.7933409302     1.8771652838     2.0787985551
C     1.5125867988     -1.0390577296     2.2576743355
C     0.3773005543     -0.2516455516     2.6258170099
C     2.3472724365     -2.4261119875     0.5786321087
C     1.9240294576     -2.7068085348     -0.7493540555
C     1.3561411783     -2.3367875376     1.6309436632
C     0.1974333393     -2.0128720123     -2.1372934366
C     0.5549764789     -2.9501432122     -1.0498229033
C     -1.3345846799     -0.1419725372     -2.5701200701
C     -1.0876000366     -1.5514721742     -2.2628491324
C     -2.9004821774     1.3280931394     -1.386705229
C     -2.6276380833     0.1448937069     -2.0503972483
C     -2.8476020176     1.7515234881     0.9074924657
C     -2.0801746837     1.1790295857     2.0057511163
C     -3.4653231642     0.9522563588     -0.0435729468
C     -0.9108937357     -0.9080900894     2.5715266607
C     -2.1349756148     -0.1919102487     2.2005466942
C     0.0747705262     -2.8411216852     1.3847340375
C     -0.3599749997     -3.1624427608     -0.0101858379
C     -1.0146279795     -2.2022456466     2.0030804996
C     -2.1314774688     -2.018096109     -1.3274315076
C     -3.0719527211     -0.989163458     -1.2011470834
C     -3.4879928356     -0.4662714807     0.0736627587
C     -2.9026019091     -1.0413073438     1.2551599212
C     -1.7285266584     -2.7290615935     -0.1510176391
C     -2.1770561931     -2.2346684072     1.1174284064


