48

 C     -3.9685821165     1.0754176518     0.0830076487
C     -3.9118998019     0.043053781     -0.9172170241
C     -3.5766323387     -1.1837915253     -0.3605059391
C     -3.4471895501     0.4406561778     1.3201533886
C     -3.326336475     -0.9810629348     1.0874813937
C     -2.3396986249     1.16687395     1.8141890167
C     -3.0388388699     2.0384613003     -0.2861904361
C     -2.1798766528     2.2827332313     0.855332958
C     -2.8802719597     0.3825466642     -1.9128308119
C     -2.3389861318     1.6279426738     -1.5557256721
C     -2.5128348268     -1.777550034     -1.1769339701
C     -2.0117201448     -0.7341288424     -2.0971112041
C     -1.6181984807     -2.623771319     -0.5614474875
C     -2.2454101473     -1.6445796286     1.6440435668
C     -1.6156832083     -2.7214690236     0.8904693999
C     -1.1365343906     0.4990455984     2.2964247245
C     -1.1668762205     -0.9207132321     2.3150757573
C     0.1849160535     1.1600986955     2.1774485761
C     -0.9359815688     2.7480692509     0.6163817034
C     0.1879710293     2.426101661     1.4849412309
C     -0.9424129811     1.8638996554     -1.7097213992
C     -0.3819632087     2.8125493378     -0.7682362186
C     -0.6107769251     -0.5492069473     -2.2684082933
C     -0.0492617782     0.8135710976     -2.1914825996
C     -0.2369974153     -2.689248905     -1.0362233961
C     0.2679436703     -1.6880313695     -1.9314680621
C     -0.2737971969     -2.8027905776     1.259085624
C     0.0604304367     -1.6666243602     2.0996529571
C     0.5654187809     -3.0481873077     0.1065297336
C     1.4441742477     0.3941498551     2.1766702052
C     1.35509272     -1.0781615138     2.0452381215
C     2.6460762506     1.017811455     1.6568896118
C     1.3347251192     2.9011618366     0.8121134187
C     0.9741352139     2.9571368624     -0.6405686028
C     2.5286361319     2.2492617878     0.9036791916
C     1.417727333     0.9992972666     -2.0708879357
C     1.9292920058     2.172841958     -1.3570803781
C     3.0638117881     2.0267046074     -0.4638648711
C     1.6735004236     -1.4802597344     -1.9363160975
C     2.2598158358     -0.1612966957     -2.0830745753
C     1.8876652397     -2.6922643368     0.1860479386
C     2.3546687883     -1.8024373039     1.2677785601
C     2.5210143002     -2.20486307     -1.0061753723
C     3.6062128803     0.2516933497     0.9282417405
C     3.7938114231     0.867422201     -0.4196915961
C     3.5240539977     -0.1861643154     -1.34268761
C     3.5040108335     -1.1386340613     0.7473332437
C     3.6616595114     -1.443262868     -0.6803581583


