48

 C     -3.445144102     -1.8609865748     -0.3728068859
C     -3.9076746748     -0.6312015169     0.0333215702
C     -3.4731613873     0.3889866954     -0.8984010248
C     -2.6272099208     -1.6241872642     -1.5878170256
C     -2.6381268728     -0.2065515259     -1.9192087941
C     -1.3946241838     -2.2231099699     -1.4126296138
C     -2.5365868882     -2.3239237206     0.6497119385
C     -1.336526779     -2.695765579     0.0262776749
C     -3.342347973     -0.2777015203     1.3429664951
C     -2.4401708007     -1.3263354962     1.7242526004
C     -3.0233357436     1.5110710438     -0.1374089337
C     -2.8954827513     1.0675735791     1.2857873381
C     -2.0379665712     2.3027744972     -0.6796978257
C     -1.4321801255     0.4578207333     -2.3145921696
C     -1.3225490645     1.8456801483     -1.895970752
C     -0.2044368614     -1.6843440576     -1.9892140497
C     -0.1840493915     -0.3005183402     -2.4769317157
C     0.9803105297     -2.3109754426     -1.5344656541
C     -0.1086796127     -2.6535047691     0.7150863523
C     1.0333752355     -2.8620608242     -0.1321565882
C     -1.1546400941     -0.9994466716     2.2735530533
C     0.0028265238     -1.8448153879     1.9337525239
C     -1.7286747378     1.4237222306     1.9670214064
C     -0.8938457777     0.388892312     2.5443330867
C     -1.0806360274     3.0061664599     0.1738308427
C     -0.8626173934     2.4941274124     1.478588498
C     -0.0878887142     2.4781955253     -1.8820711783
C     0.0482991495     3.2908165345     -0.6392254432
C     1.1153396858     0.3867555378     -2.4491245619
C     1.1382928447     1.8014385033     -2.1475252462
C     2.2425096266     -1.7572562705     -1.7773496981
C     2.298664681     -0.3366357565     -2.0679447718
C     2.3327586712     -2.6987689105     0.3462669224
C     3.1497887655     -2.1111891386     -0.711555654
C     1.3152332887     -1.3826647606     2.2425510911
C     2.4548379556     -1.8779329257     1.527181305
C     0.4564867088     0.9039108677     2.5717345791
C     0.4872821424     2.210492417     1.9139303814
C     1.5394804421     0.0415292083     2.4875981787
C     1.3385164288     3.1118723593     -0.1881891971
C     2.0742788359     2.3076314139     -1.1808736525
C     1.6012336073     2.5400481984     1.1050204963
C     3.227666627     0.2056929364     -1.0883468553
C     3.6305971805     -0.8879140732     -0.2126890362
C     3.2977837621     -0.7699927387     1.1845425284
C     2.7356342324     0.4311230043     1.7332505106
C     2.9689925525     1.4633451569     -0.5168602226
C     2.6883629713     1.5881184602     0.9524951766


