48

 C     2.4004686181     1.3482774025     -2.0071432659
C     3.1772383196     0.8370619707     -0.9568114772
C     3.0499415856     -0.60379771     -1.00211077
C     1.8114226954     0.2141545068     -2.7338441779
C     2.1532800365     -0.9939745659     -2.0864400688
C     0.4683935048     0.5267025834     -3.0568982965
C     1.3750531289     2.2913193514     -1.764381452
C     0.1410278426     1.8085580115     -2.4285958948
C     1.302072418     2.8814514365     -0.4812315333
C     2.9753200783     1.2734856397     0.394777215
C     2.1123570966     2.3537422923     0.6319337243
C     2.8884998798     -1.1023717443     0.3017076598
C     2.8794442556     0.0587467985     1.2264566353
C     2.0217053315     -2.1944892448     0.5068326571
C     1.144164556     -2.0073525991     -1.8441987508
C     1.1946265969     -2.6948660275     -0.5646445741
C     -0.4683935048     -0.5267025834     -3.0568982965
C     -0.1410278426     -1.8085580115     -2.4285958948
C     -1.8114226954     -0.2141545068     -2.7338441779
C     -1.144164556     2.0073525991     -1.8441987508
C     -2.1532800365     0.9939745659     -2.0864400688
C     0.0148761353     3.1693715267     0.0411825138
C     -1.1946265969     2.6948660275     -0.5646445741
C     1.2492069194     2.3321202467     1.8139505789
C     -0.008645025     2.9107192199     1.458590127
C     2.0597601086     0.032171544     2.3374523602
C     1.2527168024     1.2127357603     2.6765184081
C     1.2444773974     -2.2685683887     1.7563687481
C     1.2568164077     -1.1734921556     2.6329105947
C     -0.0148761353     -3.1693715267     0.0411825138
C     0.008645025     -2.9107192199     1.458590127
C     -1.3750531289     -2.2913193514     -1.764381452
C     -2.4004686181     -1.3482774025     -2.0071432659
C     -1.302072418     -2.8814514365     -0.4812315333
C     -3.0499415856     0.60379771     -1.00211077
C     -3.1772383196     -0.8370619707     -0.9568114772
C     -2.0217053315     2.1944892448     0.5068326571
C     -1.2444773974     2.2685683887     1.7563687481
C     -2.8884998798     1.1023717443     0.3017076598
C     -0.0002751804     0.7220220895     3.1476210387
C     0.0002751804     -0.7220220895     3.1476210387
C     -1.2568164077     1.1734921556     2.6329105947
C     -1.2492069194     -2.3321202467     1.8139505789
C     -2.1123570966     -2.3537422923     0.6319337243
C     -2.9753200783     -1.2734856397     0.394777215
C     -2.8794442556     -0.0587467985     1.2264566353
C     -1.2527168024     -1.2127357603     2.6765184081
C     -2.0597601086     -0.032171544     2.3374523602


