48

 C     -3.2880419937     -1.9902721189     -0.185752656
C     -3.7186676335     -0.7217734303     0.3612123043
C     -3.6346965293     0.2191070829     -0.6681494737
C     -2.7076650138     -1.7609339819     -1.5258832447
C     -2.9380535683     -0.4211540759     -1.8267471712
C     -1.3712869765     -2.2690784407     -1.5599123553
C     -2.2756279786     -2.509819366     0.6022794202
C     -1.1810536015     -2.9365644392     -0.2586068954
C     -2.9168645696     -0.4776615047     1.5629405837
C     -1.9785483202     -1.5863444484     1.7061590595
C     -2.4519429174     0.8014847852     1.8181988371
C     -3.0800005304     1.5085404201     -0.462733815
C     -2.7136761745     1.8820191596     0.8649972841
C     -1.8794995346     0.4339215847     -2.2178651168
C     -2.094362846     1.7189372226     -1.5310117614
C     -0.2819984682     -1.4858315704     -2.0585492436
C     -0.5463633731     -0.076811     -2.3894278686
C     1.0917523482     -1.9068004769     -1.6656738172
C     0.0518604093     -3.0091991881     0.2910680831
C     1.2322657881     -2.7972598799     -0.5317673594
C     -0.6310408429     -1.4244274271     2.1282028213
C     0.3069876623     -2.4020580214     1.6179872329
C     -1.0798410485     1.0018171286     2.3584413255
C     -0.1055008326     -0.0766733789     2.435414066
C     -1.6494652264     2.810410086     1.0161448967
C     -0.6616017782     2.2799783727     1.9995123139
C     -1.0314761287     2.5917425503     -1.3405911689
C     -0.9095899197     3.2494188481     -0.0602372271
C     0.5674977191     0.8829205466     -2.2804181062
C     0.3029856809     2.1874683057     -1.749135662
C     2.1957469914     -1.0343242012     -1.9269483464
C     1.9122380209     0.3953204672     -2.1663464983
C     3.3973843328     -1.0897894329     -1.133784007
C     2.2999758073     -2.5990484971     0.3824428457
C     1.6604852598     -2.1420361932     1.6496068107
C     3.3615839879     -1.7695692927     0.1061687708
C     1.3104436075     0.2389073226     2.266151383
C     2.2208626217     -0.8650529388     1.991406238
C     3.382084668     -0.7037917838     1.1776876853
C     0.6720689509     2.5468840028     1.5668388351
C     0.5160977487     3.2057717323     0.3021443207
C     1.2670222395     2.784166315     -0.8005209562
C     1.7038955021     1.5670105413     1.7309300797
C     2.9335982861     1.1621238159     -1.5021441801
C     3.8171307575     0.2766293359     -0.8619881866
C     3.6655870507     0.5123749739     0.5514695785
C     2.4826942578     2.1588266908     -0.5512842189
C     2.7746151078     1.6404927971     0.7680755603


