48

 C     4.0407368508     -0.6236252709     -0.3832757566
C     3.6369834448     -1.5099371078     0.6604662564
C     3.0754315121     -0.722840671     1.7519660192
C     3.6743383614     0.6719261745     0.027020858
C     3.1008634675     0.6526099649     1.3893542123
C     2.9418707121     1.3542785812     -1.0367378467
C     3.1642709386     -0.8928035598     -1.53425952
C     2.6286658925     0.3297810066     -2.0543407126
C     2.5598350456     -2.2855908995     0.1872203665
C     2.2740316614     -1.9611286048     -1.2092184665
C     1.8389011689     -1.3147530452     2.1854180494
C     1.4665465954     -2.3016625911     1.1470481521
C     0.8434009887     -0.4854878225     2.6579244288
C     1.9904441397     1.509093584     1.7060517006
C     0.9351563671     0.9630298823     2.5209714856
C     1.984611137     2.2849602532     -0.7028788466
C     1.5860151137     2.4864878817     0.7107205963
C     0.7724071451     2.4391285902     -1.5308907017
C     1.350785001     0.3016113754     -2.608993458
C     0.4254148695     1.434525866     -2.4428290047
C     0.9197387546     -1.9329331153     -1.6419770087
C     0.5470576725     -0.8871060727     -2.5394354223
C     0.1430630614     -2.4410768412     0.7337658151
C     -0.1430594953     -2.4410523346     -0.7338478517
C     -0.5470564114     -0.8871920997     2.5394055251
C     -0.9197359377     -1.9329894771     1.6419120375
C     -0.425417008     1.4344431491     2.4428770028
C     -1.3507854654     0.3015218339     2.6090035599
C     0.2605893948     2.9315688208     0.6863945597
C     -0.2605939624     2.9315914647     -0.6862963183
C     -0.7724108712     2.4390760083     1.5309724179
C     -1.5860188985     2.4865092101     -0.7106372808
C     -1.984614562     2.2849334698     0.7029554142
C     -0.9351577766     0.9631130361     -2.5209392686
C     -0.8434002219     -0.4853998468     -2.6579407101
C     -1.9904463793     1.5091477354     -1.7060011872
C     -1.4665431792     -2.3016260053     -1.1471254063
C     -1.8388992328     -1.3146823574     -2.1854623051
C     -2.2740287188     -1.9611722917     1.2091525863
C     -2.5598315566     -2.2855880689     -0.1872972253
C     -2.6286662658     0.3297081074     2.0543515742
C     -2.9418726355     1.354239131     1.0367831126
C     -3.1642694752     -0.8928597772     1.5342295344
C     -3.1008642797     0.6526517923     -1.389332531
C     -3.0754303132     -0.7227863288     -1.7519904935
C     -3.6369810044     -1.5099201776     -0.6605170989
C     -3.6743392543     0.6719214645     -0.0269984049
C     -4.0407353911     -0.6236440164     0.3832545612


