48

 C     4.0705965285     -0.7791447128     -0.0000400663
C     3.4431270216     -1.9767684361     -0.0000183089
C     2.5699600007     -2.070249676     1.1881002659
C     3.6318759093     -0.0202844379     1.2029666065
C     2.5807232051     -0.7841499934     1.8787228014
C     3.329907047     1.2489262256     0.7604353544
C     3.6318457024     -0.0203132255     -1.2030536079
C     3.3298893362     1.2489093788     -0.7605458602
C     2.5699317941     -2.0702792153     -1.1881138945
C     2.5806779709     -0.7841937518     -1.8787666261
C     1.3536632615     -2.5582663237     0.7626157969
C     1.3536455692     -2.5582838486     -0.7625880186
C     0.1543077114     -2.1673286865     1.4084081301
C     1.3407654125     -0.1577283617     2.2442831207
C     0.0957371102     -0.9586660962     2.1757185015
C     2.175266102     1.9399185728     1.1741047975
C     1.2060389089     1.2945936532     2.0229002804
C     2.1752386544     1.9398912412     -1.174202977
C     1.679729187     2.6731548966     -0.0000512452
C     1.3407117739     -0.1577805522     -2.2443112653
C     1.2059904247     1.294546161     -2.0229595722
C     0.1542737685     -2.1673614717     -1.4083613317
C     0.095684381     -0.9587172273     -2.1756981126
C     -1.0181696972     -2.6795348695     0.7584670721
C     -1.018187397     -2.6795533364     -0.7583804508
C     -2.2850931031     -2.3829662492     1.1939115782
C     -1.2483622888     -0.3414983267     2.2936680136
C     -2.4271493691     -1.0858314138     1.8842659073
C     -0.1034819473     1.8806040576     2.010462174
C     -1.3221213315     1.0782824086     2.188714881
C     0.4240400214     3.2055158239     -0.000042733
C     -0.4077567914     2.9767118513     1.1614807683
C     -0.1035301397     1.8805573675     -2.0105036802
C     -0.4077846335     2.9766856089     -1.1615417426
C     -1.2484173522     -0.341551902     -2.2936298656
C     -1.3221739834     1.0782313855     -2.1887084848
C     -2.2851212357     -2.3829921771     -1.1938002338
C     -3.1569840596     -2.391287829     0.0000660743
C     -2.4271948884     -1.0858754266     -1.8841825845
C     -3.490475432     -0.4095405481     1.1922032076
C     -3.8208762646     -1.2098157297     0.0000604495
C     -3.4905037849     -0.4095679255     -1.1921092348
C     -2.3746228892     1.7158652458     1.4220093974
C     -1.7642759397     2.8020609327     0.7033331107
C     -1.7642929677     2.8020451572     -0.7033573591
C     -2.3746568096     1.7158320691     -1.4219930315
C     -3.3161859293     0.9186086975     0.7594674165
C     -3.3162045673     0.9185910155     -0.7594094186


