48

 C     -4.0601681965     -1.0681714527     -0.3842997385
C     -4.2139672482     0.0323492793     -1.2001261034
C     -4.132042904     1.2134716113     -0.34714034
C     -3.8387611861     -0.6838712963     1.0170392554
C     -3.8310759618     0.7291320633     1.0357807762
C     -2.6824224629     -1.4088145886     1.4741927149
C     -2.9107903272     -1.8886579925     -0.8048677236
C     -2.1351530611     -2.1945539725     0.3279058574
C     -3.0220858137     0.0111320252     -2.0816664606
C     -2.2815782001     -1.2302713299     -1.923264164
C     -2.9712527762     1.8796242561     -0.7177741763
C     -2.2967991082     1.1881158014     -1.8487646654
C     -2.6685969754     1.4054211731     1.5495113672
C     -2.1276616473     2.2171599754     0.4379907101
C     -1.738046827     -0.7633686685     2.2684985264
C     -1.7348623681     0.6885643254     2.3047078111
C     -0.3438366664     -1.1859818458     2.2674676031
C     -0.7334055447     -2.4061543668     0.1889606485
C     0.1434027485     -2.1573424791     1.3455242247
C     -0.8729489637     -1.2262943922     -1.9961374513
C     -0.1507127519     -2.1340639761     -1.1089855334
C     -0.8776052785     1.2144325932     -1.9287625212
C     -0.1542484083     0.0159522734     -2.2906373897
C     -0.7717990127     2.4066175808     0.2726760359
C     -0.1675911907     2.170923095     -1.085614279
C     -0.345888275     1.0903381052     2.3113255863
C     0.502977821     -0.0542991546     2.5416261918
C     0.1254038417     2.0776205503     1.4052367552
C     1.9074082121     -0.0416631048     2.2508292194
C     1.5470100051     -2.2339738406     1.1719001521
C     2.4700507521     -1.2720558122     1.748624392
C     1.2549760221     -2.1765334849     -1.2312573052
C     2.082567949     -2.6172120588     -0.1216717813
C     1.2981320491     0.0333253788     -2.3037617836
C     1.9883475213     -1.1998323947     -1.9961200873
C     1.2029666709     2.2428041539     -1.2096155085
C     1.9674454566     1.2665218448     -1.999902751
C     1.5202799204     2.1649403184     1.2180373789
C     2.460129204     1.209397661     1.7932394655
C     2.0352715938     2.6337762352     -0.0620663173
C     3.2911497505     1.2381726139     -1.4298109299
C     3.6039111547     1.1991114303     0.9091754302
C     3.2794783326     2.0693240689     -0.2358538345
C     3.6219670063     -1.2332150011     0.8664499348
C     3.362011602     -2.0817760851     -0.2741185964
C     3.3254296228     -1.1807496801     -1.4313752744
C     4.1328134739     0.0089480881     0.4175611749
C     3.9401724452     0.0316774765     -1.1106654962


