48

 C     3.3423829535     -1.9511440868     0.1904796845
C     3.4209143232     -0.8477996259     1.1714951121
C     3.7914411639     0.2955256468     0.4723675902
C     3.2255197754     -1.3163061343     -1.1408739484
C     3.55485012     0.0115795703     -1.0017552141
C     1.936194585     -1.688244421     -1.7230019757
C     2.192211135     -2.642487048     0.4212828253
C     1.4327239828     -2.7241762937     -0.8328742855
C     2.2126159169     -0.8433451294     1.9650418463
C     1.4676216616     -2.0274394934     1.5732297504
C     1.4836437496     0.3786587527     2.2142170488
C     3.1517781911     1.4942828353     0.7532807994
C     2.062478962     1.5922954301     1.6787132937
C     2.6923565581     1.0393945677     -1.5077401063
C     2.6692385367     2.0630642877     -0.5052641887
C     1.0170631817     -0.7239654661     -2.2380280823
C     1.4313006218     0.7010377354     -2.1694340126
C     -0.4353836621     -1.0615173853     -2.2356750915
C     0.1085784447     -2.9406079167     -0.7288224698
C     -0.8193551262     -2.3120293289     -1.6355990833
C     0.077143871     -2.1249085881     1.6484483441
C     -0.5555460876     -2.9628658796     0.6103819274
C     0.0093396556     0.3009188314     2.368268471
C     -0.7003799996     -0.9937550862     2.1910363992
C     -0.7455446459     1.4917058623     2.1690583787
C     1.1854151019     2.6356206282     1.161392899
C     1.5503094616     2.8639036814     -0.2564294231
C     -0.1428095481     2.6537807783     1.5146892395
C     0.4162484224     1.6843914263     -2.1129701469
C     0.523640355     2.8388814883     -1.2120455756
C     -1.4667773493     -0.014011126     -2.233171177
C     -1.0131811841     1.3594726281     -2.1935922802
C     -2.7641510302     -0.2693556856     -1.6436347666
C     -2.1085985742     -2.5397949145     -1.0765531749
C     -1.9029418617     -2.908508987     0.3742544001
C     -3.0847587552     -1.5695542831     -1.1078080132
C     -2.110865455     -0.9959697488     1.9802480295
C     -2.7302840085     -2.0212927061     1.1268105261
C     -3.6592419116     -1.4124599129     0.2511202451
C     -2.1470428488     1.4585625272     1.7554511848
C     -3.3166314705     0.6904716221     -0.6835710425
C     -2.8160537332     0.2337509249     1.6869862144
C     -3.6525566207     -0.0296064836     0.5185351966
C     -1.1178207026     3.1489594591     0.5576174464
C     -0.7894440923     3.2047828416     -0.8068438708
C     -1.7462398487     2.3543319167     -1.494262371
C     -2.3684463355     2.4514386762     0.7416477551
C     -2.7609558789     1.9743366128     -0.5561063079


