48

 C     2.86377037     -2.0975776041     -1.1682989613
C     3.3294790441     -0.756994644     -1.0442745008
C     3.4097856096     -0.3859677536     0.3680643842
C     2.4239573696     -2.4800233809     0.1202963504
C     2.694865592     -1.4182254726     1.0907392106
C     1.1151497215     -3.0514759212     0.037580199
C     1.6542724646     -2.0550433895     -1.964726102
C     0.5951105618     -2.7510845422     -1.3051751914
C     2.5614294001     0.0837216824     -1.9000950776
C     1.4341490651     -0.720157681     -2.4223958064
C     2.3651464927     1.4274384181     -1.5254295729
C     3.2411587073     0.9672881674     0.709439514
C     2.9249077255     1.9232777556     -0.3160437732
C     2.3951254383     1.2874285977     1.8380837994
C     1.682898499     -1.0635211346     2.0584321677
C     1.5348230442     0.3333811742     2.4046507062
C     0.254920926     -2.9018150779     1.1248571714
C     0.4929944621     -1.8390055965     2.127772444
C     -1.1244883999     -2.9826572694     0.8815424465
C     -0.7547007853     -2.3447218924     -1.487955396
C     -1.6604502975     -2.7454063291     -0.4116157871
C     0.1170039369     -0.1843151558     -2.4972339401
C     -1.0174174274     -1.077223391     -2.1940334849
C     1.0578593526     2.0412566847     -1.7702861907
C     -0.0314093787     1.2904714677     -2.3038426333
C     1.9209644773     2.8399279855     0.2309987585
C     1.6373821842     2.5009476736     1.5540623251
C     0.8410697723     3.0019470806     -0.6939361268
C     0.195242914     0.9482826924     2.5428867545
C     0.2826590704     2.3009014489     1.9910642154
C     -0.7900056595     -1.2506665165     2.4232496357
C     -1.8014173044     -2.073119896     1.8253046223
C     -0.9941121706     0.1951228808     2.467492231
C     -2.8919431003     -2.0329055426     -0.2033548708
C     -2.8906020883     -1.5165853879     1.2055188091
C     -2.3180300542     -0.4642038879     -2.015859619
C     -3.2351871422     -0.9864114984     -0.9995306622
C     -1.3458520014     1.813315144     -2.0343108444
C     -2.4586763096     0.9363217269     -1.991412595
C     -0.452944413     3.1884987081     -0.178370207
C     -0.7661661762     2.770267582     1.2147221253
C     -1.5288484605     2.7779181046     -0.9696526071
C     -2.2083817049     0.7958916493     1.822391756
C     -3.1702890057     -0.1072011254     1.2006182832
C     -3.6466704288     0.1562116414     -0.1296410903
C     -3.2834305163     1.3064200601     -0.7971259529
C     -2.0485515264     2.0848799604     1.1982784596
C     -2.6065538504     2.3151908041     -0.1134463756


