48

 C     -1.9066778741     3.0158761564     -0.2913125352
C     -0.5544344006     3.3442965438     -0.4985933296
C     0.1434247823     3.0294273742     0.7168079744
C     -2.0966871722     2.4518885678     1.0295638764
C     -0.8382606498     2.4421349689     1.6629820405
C     -2.879278038     1.2416014072     0.898389504
C     -2.3406444378     2.0568924792     -1.2393965526
C     -3.059959601     1.0092762083     -0.5645662059
C     -0.1408564293     2.6392752425     -1.7048335461
C     -1.2499198549     1.7647607834     -2.1411697223
C     1.1476777302     2.1844912297     -1.7873920458
C     1.4877730419     2.5686370919     0.6732320792
C     2.0734820916     2.354948532     -0.6524430445
C     1.9091240323     1.6859793502     1.7400639687
C     -0.47864485     1.3096841744     2.4924060744
C     0.8913153318     0.9872573017     2.5694466408
C     -2.6178325481     0.1676305747     1.7281952023
C     -1.4454862296     0.2212344446     2.6178125517
C     -2.7438275631     -1.2056433007     1.2209346498
C     -2.9617139397     -0.2653617081     -1.0802638245
C     -2.9446227561     -1.4330847898     -0.1676260321
C     -1.0413581217     0.4266915383     -2.5767623208
C     -2.0561416479     -0.5408730294     -2.1982162012
C     1.4325186235     0.8955587929     -2.4312331708
C     0.366745227     -0.0427062961     -2.7501049207
C     3.0680486441     1.3725264722     -0.8235783753
C     2.6491870028     0.4506149496     -1.9048097946
C     2.963883796     0.7779505354     1.5253632445
C     3.520242001     0.5929840126     0.2514675398
C     1.3211711745     -0.4077670323     2.7190912189
C     2.5185750087     -0.5480407897     2.0126425069
C     -0.9917964786     -1.1084097425     2.7534781816
C     -1.765695072     -1.9856713645     1.8865315509
C     0.3751728788     -1.457762732     2.6526961021
C     -0.8687016798     -2.8578458775     1.2050333729
C     0.5000478782     -2.5034687246     1.6386129762
C     -2.2143794624     -2.4530536981     -0.7988719917
C     -1.6961828544     -1.9045670712     -2.0734514862
C     -1.1308324408     -3.1389978741     -0.1525332981
C     0.658220037     -1.4256695367     -2.5601043409
C     -0.396688047     -2.3520726652     -2.2646254683
C     -0.0215412164     -3.1042225895     -1.0787790976
C     2.7990073586     -0.901928597     -1.4351103865
C     3.2952589923     -0.8208922984     -0.1007110464
C     2.6626267878     -1.5225245757     0.9803350044
C     1.5874293201     -2.4635677642     0.7137381893
C     1.7902465538     -1.8250947998     -1.7223577267
C     1.2809870709     -2.7223908749     -0.6899779853


