48

 C     3.3732334277     -1.1868884536     -0.8483378421
C     2.4620388075     -2.2397039742     -0.6450305722
C     2.0774451406     -2.3363699445     0.7568741055
C     3.4070360476     -0.4453069301     0.363447804
C     2.7086982103     -1.1838517899     1.3989359944
C     3.0916814213     0.9303952378     0.1005944599
C     2.826988337     -0.3107180427     -1.8711876384
C     2.7882145999     1.0103756049     -1.3329892214
C     1.4635416166     -2.1750079759     -1.6882059048
C     1.630720112     -0.8736443122     -2.3829606527
C     0.2054748159     -2.6308771149     -1.4165919305
C     0.7433476087     -2.716475262     1.0743011659
C     -0.1329863606     -3.0798938751     -0.0376699113
C     0.1051942064     -2.0799020007     2.2093268695
C     1.9959340068     -0.4570991703     2.3518103195
C     0.788920717     -1.005996081     2.8715901802
C     2.3220476234     1.6980009741     1.051349643
C     1.8091359944     1.0055708245     2.2057009641
C     1.5291064365     2.7844113164     0.5255023086
C     1.7633854351     1.8624837934     -1.7796270673
C     1.3018549218     2.8537740078     -0.9076137315
C     0.4544439775     -0.0735288729     -2.6931164697
C     0.5939366829     1.3288726959     -2.5127038213
C     -0.9747764463     -2.0299920886     -2.0335856049
C     -0.8943506125     -0.6839361505     -2.5773647726
C     -1.5064419055     -2.9318173871     0.0723757645
C     -2.0569812422     -2.4083436959     -1.2035724011
C     -1.2949458943     -1.7299237945     2.1860283378
C     -2.1275353422     -2.2032825303     1.1610702161
C     -0.1379265573     0.0557387494     3.1060496296
C     0.4804800877     1.2848471899     2.6912266313
C     -1.4086187422     -0.3248384976     2.6083584926
C     0.2601938889     3.0786043883     1.0935852377
C     -0.3320198814     2.2588952671     2.0613220345
C     -0.097598232     3.1414754632     -1.2021591041
C     -0.5497907346     2.1681403569     -2.1674264071
C     -0.7417231416     3.2954472951     0.0157381364
C     -2.0172440577     0.18345496     -2.3253121261
C     -1.7955293304     1.5851739161     -1.983513056
C     -3.076115517     -1.5183707806     -0.8908464749
C     -3.1174676405     -1.3461171383     0.5904851374
C     -3.0990266985     -0.2616835692     -1.4919924969
C     -2.2371787595     0.6081036615     1.8613568616
C     -1.7059061008     1.9070805596     1.6133249855
C     -1.9144910529     2.5657236774     0.3299123314
C     -2.5535522572     1.8677404958     -0.7363005189
C     -3.1346518762     0.0439183671     0.855150196
C     -3.27619474     0.7153446304     -0.4273100813


