48

 C     -2.1574657252     2.8767360523     -0.6275169144
C     -3.0178751849     1.841592392     -0.4446098678
C     -2.8712243178     1.3758432093     0.973263188
C     -1.3641077374     3.0743203194     0.5847863384
C     -1.7311982458     2.0721744983     1.551538393
C     -0.0288187361     3.1943294199     0.1961502577
C     -1.2038986546     2.5281191311     -1.6997631884
C     0.0939599155     2.7943338345     -1.2449493289
C     -2.7815045999     0.8494706348     -1.5263326359
C     -1.5458593861     1.2414794921     -2.2177060653
C     -3.0525010861     -0.4576284584     -1.2447007468
C     -3.0969591272     0.0514237713     1.2335199045
C     -3.5289424202     -0.816384419     0.1217191101
C     -2.1622670192     -0.7113406807     2.0909973617
C     -0.7171794521     1.3338699153     2.2758998926
C     -0.9244869894     -0.1174594436     2.5128085183
C     0.9561533976     2.7537882764     1.0948359463
C     0.6232171688     1.8019985772     2.1579122141
C     2.2048710114     2.4238623779     0.5604790006
C     1.1900566643     1.9775812968     -1.6665286342
C     2.3669011776     2.0551589563     -0.8238995249
C     -0.5194231885     0.2849482762     -2.4989769488
C     0.886799306     0.7245044573     -2.3866246944
C     -2.1258617436     -1.4952125498     -1.6994611514
C     -0.867268399     -1.1423061467     -2.2893976297
C     -3.0123780432     -2.0583688016     0.3870267335
C     -2.1818019333     -2.0431142008     1.5949340149
C     -2.1801199168     -2.5291968156     -0.7072408899
C     -0.9840303581     -2.7380639255     1.3111766513
C     -1.002577269     -3.0811298634     -0.1479084156
C     0.2340799591     -0.9742966021     2.5204661429
C     0.2096809059     -2.2579428596     1.8548416049
C     1.7784264193     0.9246186744     2.2990274671
C     2.8117958913     1.398212684     1.4056707815
C     1.5869774967     -0.4600559915     2.3954620842
C     3.3188518085     0.991049317     -0.8207360932
C     3.534220484     0.5370654799     0.6033049478
C     1.9074133849     -0.2954697633     -2.3784293039
C     3.114859778     -0.1235737437     -1.5852046931
C     0.2089898066     -2.0638532334     -2.040018125
C     0.1739184488     -2.9568671734     -0.8670127781
C     1.5351235055     -1.6507257816     -2.2034080031
C     1.4833302423     -2.4446139008     1.1678932528
C     2.380305641     -1.3864192109     1.5803260418
C     3.3533897434     -0.8771042502     0.6625678343
C     3.2938112238     -1.3239352685     -0.7144716012
C     1.4548329183     -2.8609840672     -0.1874937839
C     2.3557802349     -2.2404328926     -1.1142176643


