48

 C     -3.4898608585     -0.3310313985     -0.6500007992
C     -2.8073702453     -0.8549559552     -1.7463374169
C     -2.1901080533     -2.1030124792     -1.3160038245
C     -3.202939923     -1.1902843839     0.538520483
C     -2.335157837     -2.2220230474     0.1335578072
C     -2.8482885459     -0.3146942504     1.6180058768
C     -3.3124734483     1.0057586805     -0.2923206886
C     -2.9614277166     1.039433803     1.1241365596
C     -2.412043866     1.8569459008     -1.0037116237
C     -1.8285665645     -0.0764694248     -2.4493670479
C     -1.6415186669     1.3113995472     -2.1108066413
C     -0.9427116107     -2.201674497     -1.9064697446
C     -0.6696280423     -0.9369079639     -2.6321500725
C     0.1142775455     -2.8437280158     -1.2026745495
C     -1.1735742152     -2.5755752993     0.9518734693
C     0.0064074144     -3.010607418     0.2775464126
C     -1.7685704524     -0.6308365646     2.4502299861
C     -0.989837512     -1.8392443503     2.1854354892
C     -0.8309874018     0.4118813388     2.837753331
C     -1.9569425973     2.0059192724     1.3312833579
C     -1.7195630623     2.6353704155     0.0204411109
C     -0.8529787134     1.6968842417     2.2113197185
C     -0.4876984211     3.2034816518     -0.2510079968
C     -0.3108089308     1.8418407584     -2.3054634906
C     0.1532520887     2.8889558942     -1.5012886354
C     0.6714203912     -0.4589597196     -2.7278313854
C     0.8500599983     0.9615563921     -2.5981624289
C     1.4225899447     -2.5374027372     -1.5350729482
C     1.7491728238     -1.3217276662     -2.2668022959
C     1.3410617302     -2.8075599561     0.8142684991
C     2.2182400585     -2.5749573696     -0.3053649897
C     0.3277190015     -1.6087738409     2.6745234382
C     0.4344196107     -0.2356479803     3.0467104709
C     1.5066499608     -1.9938639707     1.9549556044
C     1.685201596     0.2692256987     2.5686432054
C     2.4061574859     -0.8345289941     1.918706136
C     0.4403835767     2.3068660401     1.8921968224
C     0.5484424755     3.1081163938     0.7569582488
C     1.7132487033     1.5495184934     2.0257816831
C     1.5900544897     2.6777619168     -1.2579843454
C     2.019577201     1.5033654616     -1.9552900945
C     1.8348233194     2.8236303681     0.0923926302
C     2.5346303208     1.8270771884     0.8563891234
C     2.8510948064     -0.7471122898     -1.5793379839
C     3.0867078913     -1.5041380764     -0.3289189586
C     3.1542504911     -0.5676442887     0.7580968828
C     2.9222064759     0.6264149137     -1.2877358854
C     3.1510072832     0.771957567     0.1703765006


