48

 C     3.7974745328     -0.86533529     -1.1060472121
C     4.0419041059     -0.6723163019     0.2297328942
C     3.7349400301     0.717243011     0.5821811483
C     3.2789495019     0.3913043992     -1.6648322877
C     3.3555355391     1.415416665     -0.6215691884
C     2.0252255632     0.0986012304     -2.2122569515
C     2.7922210819     -1.9170832125     -1.2581866889
C     1.7330913033     -1.3623242379     -1.9880861765
C     3.1746543866     -1.5572797786     1.0114278281
C     2.4832950184     -2.4171536714     0.0804649172
C     2.8349550608     0.6742715538     1.683652952
C     2.4203489995     -0.747661952     1.8963885571
C     1.8708200841     1.6864668172     1.805930753
C     2.300640834     2.3333201399     -0.5327468073
C     1.7631113675     2.627430176     0.7550021152
C     0.9200701534     1.0343926589     -2.1527303541
C     1.1402860303     2.2368818255     -1.4378566449
C     -0.4646699432     0.5263846714     -2.3476264251
C     0.3762851773     -1.7789370581     -1.7746313258
C     -0.7328883655     -0.9118891502     -2.2027753803
C     1.162732518     -2.720262761     0.3590466317
C     0.1542846047     -2.6608148836     -0.6801790013
C     1.0393346695     -1.0442426474     2.1868357267
C     0.4949583349     -2.1925936869     1.5412839113
C     0.4935791596     1.3883494809     2.2580845212
C     0.0794467663     0.0519800856     2.4925038555
C     0.3511532551     2.946105442     0.6146171394
C     -0.0051290501     2.8312855706     -0.7481437003
C     -0.4283112826     2.3125964988     1.6163276519
C     -1.5479082896     1.4166901922     -2.0586613807
C     -1.2971678475     2.4312168309     -1.0355063857
C     -2.8639749006     0.9560386058     -1.8342872551
C     -2.055422592     -1.3421117213     -1.8632388256
C     -3.1604563315     -0.4104879205     -1.794654356
C     -1.1386391293     -2.7044230566     -0.0435633928
C     -0.9260731813     -2.3398004649     1.3503872807
C     -2.2467631554     -2.2249903529     -0.7157233106
C     -1.334442458     -0.1983954624     2.4140973155
C     -1.8526492032     -1.4896973357     1.9810965648
C     -1.7944179592     1.9887195681     1.3483079425
C     -2.2965289183     2.2891198289     0.0168847124
C     -3.3420122659     1.505981748     -0.5373583932
C     -2.3058252621     0.8067844338     1.9865807606
C     -4.0441178598     -0.7000201381     -0.6704833342
C     -3.3915101757     -1.717565105     0.0577982933
C     -3.1394232887     -1.3006662409     1.404651734
C     -4.0166996617     0.489412912     0.1736669922
C     -3.4342679568     0.1200560837     1.4341945794


