48

 C     -3.450317096     0.6456854282     -0.8342576905
C     -3.0785592473     -0.5397504569     -1.4794399562
C     -3.0124547464     -1.5959482735     -0.4522777604
C     -3.4260415218     0.396263127     0.6421119932
C     -3.1493407758     -0.9682322547     0.8560408135
C     -2.6389330817     1.4178933803     1.2466283428
C     -2.7436515744     1.8054364994     -1.0843289367
C     -2.3734989864     2.3949068807     0.2157722894
C     -1.5747678087     1.8093233002     -1.9106264898
C     -1.9061394757     -0.6050419993     -2.2747938566
C     -1.0846635425     0.5755635951     -2.4802228362
C     -1.9532974153     -2.4533641127     -0.7465401462
C     -1.2708964212     -1.8871116535     -1.9342765985
C     -1.1598813772     -2.9704229796     0.3268899199
C     -2.2053634685     -1.3329873539     1.8654362548
C     -1.3745369419     -2.4683581284     1.6301313837
C     -1.551166411     1.0593840116     2.163289246
C     -1.3875120265     -0.3214278921     2.4905000976
C     -0.3777130526     1.883735796     2.1466075414
C     -1.1419887662     3.0204004981     0.0950510043
C     -0.6425013961     2.7379590629     -1.2870673597
C     -0.2221740203     2.9300753109     1.1788407088
C     0.7139106677     2.6204605174     -1.5011167732
C     0.3803570281     0.4000432842     -2.5957750166
C     1.2516347537     1.4441863927     -2.1839006971
C     0.073994471     -2.0719540068     -2.083259333
C     0.9287105968     -0.957524314     -2.5302822412
C     0.2774079663     -3.1890551757     0.1338154474
C     0.8449606315     -2.8660210414     -1.1013176085
C     -0.0660431933     -2.2182955936     2.2123779746
C     -0.0327866725     -0.8985872274     2.6908355439
C     0.9583168416     -2.7338182079     1.3584480984
C     0.9819811864     1.3246201063     2.3821827307
C     1.1632969662     -0.1121400942     2.5241061856
C     1.1747559483     3.0705790834     0.8955464129
C     1.6212966593     2.9414746678     -0.4142084243
C     1.9224881986     2.1084403209     1.7012927699
C     2.5655952482     1.1584425651     -1.5755106695
C     2.7469598087     2.0216204389     -0.4647781528
C     2.9153088104     1.4794319308     0.8587732635
C     2.2268724223     -1.2022637075     -2.0669843423
C     2.1805196449     -2.3590487603     -1.14715667
C     3.0250552045     -0.1747584586     -1.4755076832
C     2.1749904839     -2.042623165     1.2875229706
C     2.2898782575     -0.7167270931     1.8867173769
C     3.1488091293     0.0967777911     0.9957776776
C     2.850763682     -1.9961706052     0.0132739977
C     3.4063634118     -0.6610724336     -0.1743418025


