48

 C     4.0012356628     -0.3426194842     0.7942633747
C     3.1688301793     -1.4357311876     1.17386788
C     2.7576937321     -2.1724308179     0.0260107825
C     3.8622766878     -0.2339093953     -0.663991444
C     3.1595322819     -1.3489082504     -1.1602435746
C     3.3829152288     1.058146143     -1.0163233255
C     3.3593984141     0.8269124276     1.3185209731
C     3.0775931396     1.7200898466     0.2515272714
C     2.1110150411     -0.9908114647     2.0555528042
C     2.2214616857     0.4580731527     2.1314263919
C     0.8253353611     -1.5987690966     2.0136625314
C     1.4385241568     -2.5908932476     -0.137051258
C     0.4409807021     -2.4692915149     0.9049738749
C     2.0186553942     -1.1918142268     -1.9772650828
C     1.0423349585     -2.168995563     -1.4958815298
C     2.2407343289     1.2345145178     -1.8458236464
C     1.5172501259     0.1134456436     -2.3892994726
C     1.8562359303     2.4464244135     0.1413643608
C     1.4402298712     2.3098594475     -1.2441194889
C     1.0430067502     1.2840435254     2.1785006848
C     0.8683495511     2.3735513127     1.1781936687
C     -0.2168457866     -0.819106371     2.6153165703
C     -0.1247258415     0.6448969593     2.6295518359
C     -1.55322922     -1.179094561     2.4528182648
C     -0.9723894481     -2.5797712856     0.5218183193
C     -1.9911481446     -2.078207165     1.4217182836
C     -0.2670497914     -2.1044690507     -1.8358333675
C     -1.2958376602     -2.5402962649     -0.8978376335
C     0.0647429573     0.2465493995     -2.6521339521
C     -0.7734649159     -0.9477154815     -2.5846023835
C     0.1116673164     2.4672843478     -1.5753879106
C     -0.6047798983     1.4672718834     -2.3697260719
C     -0.4660147509     2.7397800158     0.8164225754
C     -0.7795344338     2.8910431526     -0.5547251508
C     -1.4787932746     1.1615957275     2.3875050668
C     -2.3833652701     0.0322831529     2.4215517095
C     -1.6611956594     2.1573087744     1.4400570857
C     -3.2277853219     -1.516691197     0.9239759705
C     -3.3721062315     -0.1510712846     1.4851121986
C     -2.4872495749     -1.9286502964     -1.3451173835
C     -2.1471472554     -0.8923120215     -2.3419063292
C     -3.4225623396     -1.3855000039     -0.4457890535
C     -2.0183688733     1.5095265956     -1.95695024
C     -2.1103450771     2.3744320918     -0.8266777214
C     -2.7023686575     1.968658223     0.3959246319
C     -3.5299355036     0.8060132449     0.3916685029
C     -2.8008316287     0.328357157     -1.9477181756
C     -3.6229258988     0.0469950764     -0.8069004175


