48

 C     -3.5994322516     -0.4282561778     -0.5947431361
C     -3.591279198     0.6694440702     0.2717440226
C     -2.9496751117     1.8131059635     -0.3903625802
C     -2.9909498394     0.0332855559     -1.8422200355
C     -2.4413780764     1.3579986252     -1.6413677943
C     -2.1547482033     -0.9716680176     -2.2924346032
C     -2.9503967411     -1.6606535593     -0.205539943
C     -2.2182239064     -2.1055331879     -1.3521101505
C     -2.3098359176     -1.7818917305     1.1067280414
C     -3.0127900367     0.556719996     1.5554745866
C     -2.3582873561     -0.6239325639     1.9889402622
C     -2.1042738616     2.4659232951     0.5726302323
C     -2.1530410532     1.7231351593     1.8024267394
C     -0.8724486264     2.9342481234     0.1556826741
C     -1.0644316517     1.6375388684     -2.0125478834
C     -0.4133936173     2.6492086872     -1.2275289356
C     -0.7940105216     -0.7420456649     -2.6406167319
C     -0.2001853634     0.5699830721     -2.564952286
C     -0.936198246     -2.6697556119     -1.2610938202
C     -0.0532435487     -1.9173407005     -2.190747598
C     -1.1231738041     -2.5825767789     1.1767318768
C     -0.435974319     -3.0656704261     -0.0104837244
C     -0.0854798478     -2.2539343586     2.1233648722
C     -1.1443963741     -0.1598391055     2.6658581948
C     -0.9762849495     1.2884492486     2.426329566
C     -0.0248193602     -0.9512350342     2.7387790746
C     0.2857467007     2.8055031612     1.0173998304
C     0.3179165999     1.8303034355     2.0829288893
C     0.9772946345     2.7583514034     -1.2313998759
C     1.4257490936     2.9785365013     0.1788119783
C     1.2705766378     0.6354771526     -2.4234754274
C     1.8518032578     1.8319094548     -1.8364860436
C     1.2912726669     -1.835464897     -1.9616834177
C     2.0020530942     -0.5932259906     -2.2129517673
C     0.9980812514     -2.9718745014     0.2365072165
C     1.1931487887     -2.5389728092     1.5982473619
C     1.869538907     -2.4803925392     -0.7540008346
C     1.3296695913     -0.4032392045     2.5498464623
C     1.5237336822     0.9805772898     2.2168245497
C     2.093846763     -1.4493517883     1.9073289316
C     2.600600937     2.3232574957     0.3769316181
C     2.9915942961     1.7340098939     -0.9241212952
C     2.6971692018     1.2859895426     1.4046024987
C     3.1405980383     -0.6260132307     -1.3367217531
C     2.9785437833     -1.69462667     -0.3764611828
C     3.0921333148     -1.1213244596     0.9636410415
C     3.5781255527     0.5253447947     -0.6506658956
C     3.4491539899     0.2405162174     0.8169551942


