48

 C     3.1854163467     -1.5921172599     -0.7339446516
C     3.4316307733     -0.3685636718     -0.1210169061
C     2.9372645575     -0.4088225247     1.2550986444
C     2.436024033     -2.4265528742     0.1583675619
C     2.3586662525     -1.7395615707     1.4349670095
C     1.2342491749     -2.7635263783     -0.4934514442
C     2.4088764288     -1.3576631668     -1.9416144927
C     1.2273666976     -2.107131089     -1.8505794434
C     3.0306407155     0.6963653871     -1.0353904563
C     2.3629632007     0.0577845609     -2.1935271099
C     2.5099422844     1.8506443507     -0.5018054607
C     2.3088972309     0.7501329299     1.7971932789
C     2.2365631952     1.9405313193     0.9578901069
C     1.206654885     0.5424461848     2.7198212861
C     1.1944373423     -1.8815833593     2.1944235184
C     0.7354171272     -0.7584260655     2.9304245122
C     -0.0000437562     -2.8960462508     0.2400178659
C     -0.0000761904     -2.52062906     1.622198602
C     -1.2342939782     -2.7634938572     -0.4935181295
C     0.0000440069     -1.5891869271     -2.375957314
C     -1.2273203133     -2.1070995162     -1.8506451288
C     1.1750541171     0.6095054183     -2.6792487648
C     0.0000746145     -0.2231985358     -2.8580654836
C     1.439918952     2.5734572157     -1.2019219858
C     0.7314980516     1.9231676299     -2.2246637213
C     1.1714810487     2.8318193958     1.1096552109
C     0.6963119503     3.270978182     -0.1998232232
C     -0.0000552271     1.3969831908     2.6828737686
C     -0.0000194584     2.5452728314     1.9293884706
C     -0.7355955466     -0.7584070575     2.9303840823
C     -1.1946048573     -1.8815521436     2.1943589335
C     -1.2067886809     0.5424781875     2.7197562757
C     -2.4360962891     -2.4264906917     0.1582355403
C     -2.3587888635     -1.7394999582     1.4348390536
C     -2.4088059664     -1.3576010324     -1.9417442115
C     -3.1854187632     -1.5920360405     -0.7341171574
C     -1.1748928549     0.6095353273     -2.6793121588
C     -0.7313275244     1.9231864734     -2.2247030855
C     -2.3628426306     0.0578452945     -2.1936548348
C     -0.696216339     3.2709960517     -0.1998609224
C     -1.1714678062     2.8318496719     1.1095916835
C     -1.4397870933     2.573494112     -1.2019999459
C     -2.3089753838     0.7501929895     1.797068689
C     -2.9373432291     -0.4087467053     1.2549396664
C     -3.4316333663     -0.3684754382     -0.1212025312
C     -3.0305665082     0.696443423     -1.0355544374
C     -2.2365651395     1.940589199     0.9577691314
C     -2.5098672206     1.8507088482     -0.5019408913


