48

 C     3.560559879     1.303855906     -0.9648715067
C     3.668342694     0.8226532892     0.4384234254
C     3.765421792     -0.5650555762     0.4076553382
C     3.1690643897     0.1345469495     -1.7536558153
C     3.3941856699     -1.0003664337     -0.9937447577
C     1.8316801891     0.3589814041     -2.3093316187
C     2.4847443472     2.155574787     -0.9945057691
C     1.4487566723     1.6864470164     -1.9354228964
C     2.6471912646     1.4409167658     1.2550254428
C     2.038391424     2.4346076523     0.3819261995
C     1.7803328401     0.6634886479     2.1256527202
C     2.9918454712     -1.3288186292     1.2845554466
C     2.0230887156     -0.7554215998     2.1770641284
C     2.4065729368     -2.0228708266     -0.8944531191
C     2.3017720231     -2.3422052796     0.5034640071
C     0.839073734     -0.6767452092     -2.339408497
C     1.1797706747     -1.939171697     -1.6496887333
C     -0.5656270101     -0.2605434539     -2.4526457064
C     0.1048899455     2.0703944574     -1.7407712075
C     -0.9526948973     1.1555138577     -2.1849409269
C     0.7549173645     2.841013196     0.5472764031
C     -0.1465762941     2.9484689709     -0.601552158
C     0.3899918245     1.1371589676     2.3445336786
C     -0.033403828     2.3615746528     1.6973573521
C     -0.6633272786     0.1986537538     2.6042759973
C     0.8842384372     -1.6735557629     2.2093766524
C     1.0812211115     -2.6617352487     1.1360486988
C     -0.400407143     -1.2322045682     2.4546509443
C     0.0977593907     -2.7154034341     -1.1251418447
C     0.0132070756     -3.0153929626     0.3295705358
C     -1.5662994117     -1.2788542262     -2.2509969867
C     -1.1982703804     -2.4679835367     -1.5565603687
C     -2.88228355     -0.9378494084     -1.7530195415
C     -2.2944935145     1.4378016122     -1.741221727
C     -3.2183142287     0.3548704798     -1.4963581058
C     -1.4314452499     2.9845379182     -0.0486214276
C     -1.3740675305     2.6004620452     1.3976423851
C     -2.4978924059     2.3394307764     -0.6405713939
C     -2.0438208446     0.425312317     2.2253754371
C     -3.7048442504     0.4481563834     -0.0790746764
C     -2.4108011873     1.6545006969     1.6362009696
C     -3.2415877034     1.6273676202     0.4353490717
C     -1.5560221194     -1.8504218707     1.8143787106
C     -1.3469685685     -2.7873583533     0.7707092753
C     -2.1429986151     -2.6639114545     -0.4140098321
C     -3.1490126392     -1.7460692277     -0.5191222592
C     -2.5963290568     -0.8402976127     1.7011567662
C     -3.4395371596     -0.824058752     0.5620242894


