48

 C     2.8875378786     -2.3873529882     -0.7622079155
C     3.4919856693     -1.0796035443     -0.8041029274
C     3.6366401133     -0.5929445398     0.5147114582
C     2.4112958636     -2.592676683     0.5889910985
C     2.8427968674     -1.5072913123     1.3686265979
C     0.9977931174     -2.8522117478     0.5669149655
C     1.7194030958     -2.3337034406     -1.5594486827
C     0.5784402385     -2.799929054     -0.8208522808
C     2.7580427973     -0.2589455125     -1.7590020193
C     1.5883701976     -1.0425520641     -2.195495329
C     2.6007184086     1.0913692749     -1.4951084215
C     3.2802598899     0.7367479818     0.8423212405
C     3.0163288778     1.6562677629     -0.2135994165
C     1.940859025     -0.7212652523     2.1532788428
C     2.316591338     0.6776244247     1.9593791142
C     0.1198239031     -2.2661497431     1.5302233359
C     0.5625690854     -1.0914239948     2.2829896075
C     -1.2590142632     -2.3953722481     1.1989398455
C     -0.7295367626     -2.414353031     -1.1967355094
C     -1.7014492829     -2.6035526699     -0.1684258698
C     0.2960119213     -0.4757526675     -2.4274259113
C     -0.897048393     -1.2955556163     -2.1362540808
C     1.3505240092     1.759479333     -1.9030658802
C     0.196540988     0.9927077138     -2.3726055333
C     2.1121473347     2.7306295691     0.0434184427
C     1.1514520221     2.8584485647     -1.0670948351
C     1.3661567218     1.6833071142     2.1234404969
C     1.3705024833     2.7952218045     1.2138926266
C     -0.44289034     -0.0188646661     2.4945079936
C     -0.0271471419     1.3288314712     2.3451136728
C     -2.2685493143     -1.5922811201     1.8295638137
C     -1.8353430432     -0.266828546     2.2615688153
C     -3.0248429381     -2.0404424436     -0.2612567188
C     -3.4311634829     -1.5121725155     1.0484954599
C     -2.1767837199     -0.6572551734     -2.123304278
C     -3.2462433673     -1.083820163     -1.2401585582
C     -1.079856722     1.5877041218     -2.1741243957
C     -2.2266925546     0.7693525699     -2.1406823455
C     -0.1606297769     3.1878878292     -0.5391231908
C     -0.03090234     3.1087932345     0.8877810634
C     -0.8920665472     2.287822157     1.6291268252
C     -1.2722142697     2.6105624955     -1.1227915617
C     -2.7223223659     0.6773325031     1.6165260171
C     -3.683069986     -0.1106207106     0.8469461152
C     -3.7842171078     0.1388888119     -0.5446785326
C     -3.1322702767     1.231849269     -1.093380699
C     -2.1664929583     1.8902946214     1.085528549
C     -2.4020438927     2.1917998195     -0.3113581048


