48

 C     4.1579187431     1.2252944229     -0.3520073067
C     4.4325547192     -0.1901745744     -0.3051593225
C     4.075410446     -0.6830839586     0.9397650185
C     3.4611623879     1.5591022502     0.9200470054
C     3.3933372079     0.3891247479     1.7151921753
C     2.2224683347     2.2018930701     0.6461595591
C     3.1343033808     1.3528577213     -1.3025030969
C     2.0416899749     2.1415127691     -0.8089003048
C     3.5638742095     -0.9039471308     -1.2755766217
C     2.7462560747     0.0583462016     -1.9143186707
C     3.1637310058     -1.8001990016     0.8259673359
C     2.9212465052     -2.0181017305     -0.6016916033
C     2.1385930585     -0.1382445323     2.1521436043
C     2.0413014463     -1.5234531188     1.6340181598
C     1.0579279517     1.9286106307     1.435434484
C     0.9479424623     0.6526016975     2.1430551226
C     -0.131390132     2.4588067278     0.9075311735
C     0.7554532974     2.0509340516     -1.355129863
C     -0.2327416954     2.6715205638     -0.5287004994
C     1.3507455858     -0.2013380861     -2.2292637407
C     0.3308557256     0.8707465105     -2.1324871885
C     1.6305855877     -2.319537352     -0.9744534327
C     0.8841816257     -1.5097687776     -1.954670395
C     0.7484430564     -2.0406163519     1.3012823169
C     0.6338356181     -2.6452858319     0.0227709703
C     -0.3762932287     0.0109991109     2.210869108
C     -0.444628305     -1.3968547614     1.8634113222
C     -1.4297491841     2.1181177473     1.4140321311
C     -1.6001348315     0.8314686265     2.0703951103
C     -1.5701505885     2.5791265469     -0.8577910608
C     -2.3650996861     2.4957108187     0.3951134478
C     -1.0834659805     0.5615778597     -2.2032384614
C     -2.043392167     1.5753291617     -1.7359544951
C     -0.5146386147     -1.7880223971     -1.8018064388
C     -0.6464591818     -2.6285067555     -0.6236991281
C     -1.5392803588     -0.842598334     -2.0959735238
C     -1.7045820387     -1.9510706066     1.4792648993
C     -1.7910766059     -2.5905230205     0.1298502286
C     -2.8858103293     0.1887613336     1.9028082052
C     -2.9021282042     -1.247078198     1.6729465791
C     -3.5109202243     1.7820685556     0.1430572455
C     -3.3578365011     1.2094728755     -1.2600198624
C     -3.8920885825     0.7307340927     0.993924071
C     -2.8563233519     -1.164812665     -1.566423118
C     -2.9653358937     -2.1008068629     -0.4969106676
C     -3.8057287572     -1.51936378     0.5526087913
C     -3.8059199211     -0.0900093184     -1.2182948531
C     -4.3786450413     -0.3513199482     0.1233255901


