48

 C     3.2214947825     -1.5868632921     0.1395074528
C     2.5010939684     -2.2090258026     -0.8670595373
C     1.4277531876     -2.9534203699     -0.2509831906
C     2.5436310111     -1.8851187883     1.4407054909
C     1.3708868369     -2.6162311203     1.1808313806
C     2.478982777     -0.6623754346     2.1258801805
C     3.5194782862     -0.1916442174     0.0658408096
C     3.1696823437     0.3745762012     1.3362712015
C     3.1524471783     0.5252060501     -1.1304482181
C     1.9239547663     -1.4617641425     -1.9828636922
C     2.2575945968     -0.1250105997     -2.1335381087
C     0.2983407684     -2.8605527388     -1.0509818703
C     0.5416635974     -1.8709580928     -2.1252828582
C     -0.9590468349     -2.9159359737     -0.4177137394
C     0.1017040191     -2.1945212903     1.7452458563
C     -1.0724945267     -2.5663143407     1.0319727216
C     1.2688780436     -0.1343644146     2.6106025764
C     0.0561985118     -0.9149123462     2.5137171355
C     2.4487968179     1.5767453843     1.4489370535
C     1.2555905082     1.2977174058     2.2570635877
C     2.7206560519     1.8456191664     -0.9922231549
C     2.337132983     2.4067816212     0.2907907331
C     1.227196853     0.833482388     -2.5216743623
C     1.6165107183     2.0819489654     -1.9413623783
C     -0.4946947556     -0.9660060693     -2.4786885348
C     -0.1630277346     0.4789860329     -2.5860618747
C     -2.0384030963     -2.3822910475     -1.0921382345
C     -1.8382017461     -1.3498797771     -2.0955455562
C     -2.3292647508     -1.8896745057     1.2035689121
C     -2.9981474856     -1.877897841     -0.0995652168
C     -1.1655189758     -0.1998538845     2.561620708
C     -2.3941757313     -0.7221674092     2.0004506731
C     0.0360018292     1.9606783621     2.0251706749
C     -1.1767362148     1.2574112805     2.3491664981
C     1.1153722647     3.0893437152     0.0862056763
C     0.6861487634     2.9004793906     -1.3375243117
C     -0.0132914134     2.8976083054     0.8898554151
C     -1.1528291412     1.4560297916     -2.0941607364
C     -0.6830480354     2.6076335071     -1.3738846365
C     -1.1746030337     2.8426907171     0.0057483764
C     -2.8218584911     -0.3660210796     -1.8358124454
C     -3.590983267     -0.7465759218     -0.6071718339
C     -2.4715918396     0.9976490454     -1.708087092
C     -3.1778400474     0.405799607     1.5372147406
C     -2.4005120901     1.6012140726     1.7296560062
C     -2.3563056064     2.2863247106     0.4406655804
C     -3.6943053554     0.4115614736     0.2122005224
C     -3.1103132916     1.5138943062     -0.5061183805


