48

 C     3.6149431697     0.1108451629     -1.3068822571
C     3.4759431245     -1.2240062118     -0.7578270665
C     3.4757265911     -1.0787195794     0.6411744664
C     3.6444268748     1.0993464384     -0.2512700194
C     3.5197694894     0.3749590465     0.9422028897
C     2.644284789     2.1018909445     -0.5512484618
C     2.5115915489     0.3845830902     -2.1258926794
C     1.9208835982     1.654919637     -1.7473912712
C     2.3376331102     -1.8433543506     -1.4023770668
C     1.691221514     -0.7990944404     -2.2599592833
C     1.5191779018     -2.6594628601     -0.652255521
C     2.4358868391     -1.6511568234     1.4224967442
C     1.625069912     -2.6412959394     0.8174762973
C     2.4722218512     0.648386995     1.8900644634
C     1.7858675295     -0.606348978     2.2163975398
C     1.8791068431     2.6128209515     0.5026615333
C     1.7289988929     1.820161374     1.744080302
C     0.5904531945     3.1055788864     0.2002927935
C     0.5263903446     1.8281088986     -1.8866475728
C     -0.0979795123     2.7657334438     -0.9825526312
C     0.2997346787     -0.6876380768     -2.3662701355
C     -0.2997944162     0.6873821825     -2.3663370902
C     0.0979547113     -2.7658394947     -0.9822553651
C     -0.5264378762     -1.8283127208     -1.8864360103
C     0.3223915623     -2.8092976767     1.3028209611
C     -0.5904481186     -3.10555747     0.2006440895
C     0.3835063734     -0.6347845744     2.4840075574
C     -0.3257776754     -1.848156155     2.1263413162
C     0.325831426     1.8483860684     2.1261328336
C     -0.3223585747     2.8094385946     1.3025247592
C     -0.3834433948     0.6350531653     2.4839481855
C     -1.5191943491     2.6593923526     -0.6525053085
C     -1.6250491072     2.6413842032     0.8172312267
C     -1.6912786339     0.798849969     -2.260003356
C     -2.3376686089     1.8432027186     -1.4025177649
C     -1.9209276191     -1.6551086649     -1.7471632924
C     -2.5116450904     -0.3848131523     -2.125787437
C     -1.8790941186     -2.6127667801     0.5029920561
C     -1.7289550442     -1.8199731307     1.7443214742
C     -2.6442985744     -2.1019504849     -0.5509538204
C     -1.7858112544     0.6065885885     2.2163766497
C     -2.4358505852     1.6513105381     1.4223793389
C     -2.4721739375     -0.6481825814     1.8901970132
C     -3.4759622438     1.2239242535     -0.7578717762
C     -3.6149758166     -0.1109865775     -1.306778645
C     -3.6444332204     -1.0993736495     -0.2510586887
C     -3.4757102483     1.0787890071     0.6411454142
C     -3.51974585     -0.3748571375     0.9423326156


