48

 C     -3.2163295056     -1.4848384159     -0.7545085409
C     -3.3634432614     -0.9948032843     0.5678764506
C     -3.3414921763     0.4438077749     0.5010478056
C     -2.9708474057     -0.4263273947     -1.6756714162
C     -3.1023084636     0.8024346484     -0.9289183769
C     -1.7737059211     -0.7350330897     -2.3987357581
C     -2.1758837569     -2.4595501943     -0.8244324
C     -1.3351831014     -2.0727563461     -1.9194019619
C     -2.4095860388     -1.7215524685     1.3836677038
C     -1.6275194129     -2.6084871042     0.4887964925
C     -1.7364254016     -1.0180554886     2.3739577344
C     -2.6595165773     1.1415752431     1.5046485378
C     -2.0073329502     0.3871456474     2.5336506495
C     -1.7800847396     2.2739566641     1.1710287509
C     -2.2332370434     1.8224504971     -1.2370546766
C     -1.6558694157     2.669194045     -0.169325556
C     -0.8049908541     0.2757020876     -2.6764213608
C     -1.1766854535     1.6169688046     -2.2445290147
C     0.6403232532     -0.0726655696     -2.7277327859
C     0.0038488295     -2.3411708355     -1.8108140898
C     1.0115879166     -1.4281227542     -2.372098649
C     -0.2178456736     -2.7796868021     0.6523277236
C     0.5352630878     -2.8907873978     -0.5681576058
C     -0.2957020067     -1.2372254804     2.6066365516
C     0.4674844999     -2.1502124492     1.8246311551
C     -0.7639010505     1.0237453234     2.8106605872
C     -0.5776154261     2.1776573671     1.9801935166
C     0.2629963745     0.0514025711     2.9884218742
C     0.7389569763     2.4597145816     1.441274474
C     -0.4103543875     3.1393467372     -0.635110484
C     -0.1629524227     2.5520288814     -1.9763017168
C     0.7891940559     3.0436364795     0.1066303729
C     1.6246471475     0.93079351     -2.4270448663
C     1.1870591896     2.2523531874     -2.0852236589
C     1.8154935894     2.6282799961     -0.8273191736
C     2.7788816075     0.6400363992     -1.5710815078
C     2.7765676092     1.6628764092     -0.4986322396
C     2.2298026256     -1.7105345806     -1.7388798335
C     1.9328383775     -2.6082377937     -0.5999608205
C     3.098504409     -0.6815502775     -1.2588976208
C     1.8907234509     -1.8859626147     1.741911324
C     2.6227658925     -2.1900036744     0.5142913324
C     3.4263821367     -1.0265647422     0.1224809944
C     1.5696364499     0.3971227493     2.6223029911
C     1.8229327942     1.6051355233     1.8135491659
C     2.8742790011     1.2548793712     0.8651541478
C     2.4104224226     -0.6398313582     2.1786730891
C     3.2882187495     -0.0882813824     1.1324416896


