48

 C     2.3572674243     2.905318249     -0.2915265374
C     3.0640261742     1.8344493151     0.2780123667
C     3.2303006625     0.7867614245     -0.7025120627
C     1.778323444     2.3767428809     -1.5244200012
C     2.2970618115     1.0655142599     -1.7929050836
C     0.3831042905     2.5924898047     -1.5677148226
C     1.2249072753     3.1326542656     0.5466577122
C     0.052575183     3.1882258442     -0.2422040458
C     2.4233482332     1.4420051471     1.5427996128
C     1.2222496278     2.2186220538     1.6824293484
C     2.4458497096     0.0921714353     1.9461358528
C     3.4312589643     -0.5275424142     -0.2442063528
C     3.175894019     -0.8498519356     1.1755387182
C     2.9161636041     -1.5690360329     -1.0198437546
C     1.4467824864     0.028039204     -2.3133423171
C     1.8979360993     -1.3215906936     -2.025133135
C     -0.5077009416     1.6233676303     -2.1216778583
C     0.0015779743     0.2797366984     -2.4716109625
C     -1.8877259796     1.7619715988     -1.7154474443
C     -1.150762131     2.8935186968     0.3821773376
C     -2.1897929553     2.4295378889     -0.44108648
C     -0.0091683245     1.6199698284     2.1603007358
C     -1.2203205638     2.1427719857     1.6395359161
C     1.2260919694     -0.5466388643     2.4290082067
C     0.0088582094     0.1812952644     2.5545600634
C     2.4869181378     -2.1052627169     1.2264329698
C     2.4332755553     -2.6249943305     -0.0945937232
C     1.2561975142     -1.9359993636     1.9543614038
C     0.9436722398     -2.3522600697     -1.8738039585
C     1.2438405863     -3.1027947943     -0.6022276583
C     -0.9429441688     -0.845848809     -2.3734733398
C     -0.4193577223     -2.1288428273     -1.9464278714
C     -2.7804617482     0.6905303801     -1.7689587584
C     -2.3190859034     -0.621975634     -2.026584861
C     -3.1449640328     1.6919932776     0.3237984713
C     -2.4640917881     1.3678005354     1.5822197155
C     -3.6318981372     0.6766474763     -0.5187069196
C     -1.2058626861     -0.5666175498     2.4416133541
C     -2.4703834606     0.040350696     2.0200011317
C     0.0441400532     -2.532268383     1.4897626532
C     0.0563110092     -3.1583497353     0.1533167483
C     -1.0085992514     -2.8082775707     -0.7647982667
C     -1.1746363667     -1.9041809218     1.8970971415
C     -2.977819258     -1.4651484367     -1.0265120383
C     -3.6938069713     -0.6284528394     -0.0668087922
C     -3.2182526815     -0.9601444593     1.2627328849
C     -2.249888501     -2.4214347173     -0.2921626511
C     -2.3804076847     -2.084972742     1.1401973515


