48

 C     -3.3626337737     1.1412527096     -0.6034105977
C     -3.3564058009     -0.2021482425     -0.9973514114
C     -3.3076205202     -1.0228508157     0.208209795
C     -3.173557245     1.1956237345     0.8819399682
C     -3.1137928136     -0.1511222744     1.3506673673
C     -2.1361242577     2.1048846578     1.1489761109
C     -2.4751838929     2.0325430374     -1.1877823487
C     -1.8182482929     2.773366473     -0.1182584606
C     -1.4855503522     1.5990892736     -2.1380408599
C     -2.4151179392     -0.7012996462     -1.9507551996
C     -1.4538713573     0.212976576     -2.549803996
C     -2.4689669005     -2.1297924065     -0.0419887097
C     -1.9552626212     -1.9823150917     -1.4118854693
C     -1.583448384     -2.54677828     0.9852144721
C     -2.1381090099     -0.5161101517     2.3108509293
C     -1.5268643063     -1.7957609815     2.1897895771
C     -1.0364239009     1.7310405348     2.0514908628
C     -1.0783278515     0.4287378305     2.6591650996
C     0.2533853758     2.2659936106     1.7835953917
C     -0.5087129359     2.9805077157     -0.4938767704
C     -0.2533870585     2.265996678     -1.7835913833
C     0.5087106585     2.980507145     0.4938821978
C     1.0364225953     1.7310451424     -2.0514878056
C     -0.1578317042     -0.3144525622     -2.8746490093
C     1.0783276098     0.4287434602     -2.6591644456
C     -0.6837503665     -2.4500103748     -1.7136889809
C     0.1367090335     -1.6728131251     -2.5723122518
C     -0.2114856959     -2.980575877     0.6562184188
C     0.2114879086     -2.9805745594     -0.6562239408
C     -0.1367077745     -1.6728178785     2.5723090681
C     0.1578319517     -0.3144576814     2.8746483481
C     0.6837521964     -2.4500130025     1.7136844578
C     1.4855491557     1.5990865151     2.1380437286
C     1.4538712316     0.2129730027     2.5498043345
C     1.8182462653     2.7733677053     0.1182634135
C     2.1361227248     2.1048884849     -1.1489723106
C     2.4751824889     2.0325428308     1.1877860361
C     3.1735566052     1.1956277989     -0.881937939
C     3.3626331661     1.1412542016     0.6034126506
C     2.138109481     -0.5161043225     -2.310852072
C     1.5268657079     -1.7957559506     -2.189793028
C     1.5834503235     -2.54677537     -0.9852192496
C     3.1137931341     -0.1511174306     -1.3506678109
C     1.9552641731     -1.9823162806     1.411881828
C     2.4151185622     -0.701301421     1.9507539344
C     3.3564062207     -0.2021475804     0.9973510436
C     2.46896863     -2.129790738     0.0419847556
C     3.3076215556     -1.0228480734     -0.2082117389


