48

 C     -4.0243678782     -0.7510965618     -0.2146180462
C     -3.7973177655     0.1986579384     -1.2166449462
C     -3.2985228913     1.4222016978     -0.621686477
C     -3.5540841867     -0.1466409819     1.0134301648
C     -3.1549005366     1.2352859988     0.7950450121
C     -2.6554507613     -1.0359556678     1.6911297851
C     -3.0859342871     -1.8423923895     -0.452070117
C     -2.3902362308     -2.1615203983     0.7559206229
C     -2.7327036147     -0.2692665251     -2.0707734501
C     -2.3149674509     -1.5851927013     -1.6396080912
C     -2.1834982368     1.8951596205     -1.3909499195
C     -1.7590697519     0.7594586019     -2.2782236201
C     -1.2158375336     2.6174924614     -0.752424222
C     -1.9986698365     1.7715329048     1.4647934803
C     -1.1879629547     2.7048214474     0.7157283135
C     -1.5829216778     -0.5056533149     2.4064124325
C     -1.2869084723     0.9228726028     2.3863861749
C     -0.3158973013     -1.2310541753     2.5006304515
C     -1.1001677168     -2.6558563555     0.6547513428
C     -0.0787338488     -2.3247644533     1.6589371275
C     -0.9324282993     -1.9187520511     -1.6931829198
C     -0.4114073268     -2.7009634072     -0.6151947009
C     -0.3979332495     0.4511551636     -2.4390603484
C     0.0107125728     -0.9735810771     -2.3316631078
C     0.167804599     2.5782286858     -1.2392162215
C     0.604271909     1.5092030359     -2.107626439
C     0.1627356823     2.9002845398     1.0418732031
C     0.9878040746     2.9689857662     -0.1735283499
C     0.1366767575     1.0587866453     2.5919789972
C     0.740495304     -0.2639920673     2.7107276047
C     0.8737988565     2.0922189377     1.9668903786
C     2.0344211132     -0.5017744929     2.2463704274
C     1.2203936149     -2.5232811212     1.0801329618
C     1.0079665319     -2.7514050579     -0.3495290318
C     2.3128725445     -1.7188208861     1.4794133889
C     1.3797993521     -1.2638345753     -2.244100805
C     1.9104385446     -2.2492672407     -1.2857434958
C     1.9711947543     1.1761886676     -2.0523864166
C     2.3704817617     -0.202288825     -2.3217212057
C     2.2599843363     2.3875956725     0.0724924774
C     2.2150524592     1.8293273498     1.4308380484
C     2.827491566     0.5865697118     1.6617991867
C     2.8429221411     1.6493127504     -0.974302645
C     3.335157391     -1.4304817331     0.5316095838
C     3.1862023808     -1.7471087935     -0.8278492027
C     3.4946217166     -0.539946329     -1.5744127158
C     3.6743519824     0.0213267213     0.6476938805
C     3.7322698631     0.5582212603     -0.6384685515


