48

 C     4.1189030173     -0.7046907786     -0.0787751166
C     4.1189037118     0.7046866918     0.0787741866
C     3.3235359856     1.0089946348     1.2423569212
C     3.3233441493     -1.2585605418     0.9893810235
C     2.8299761378     -0.2065692291     1.8476056702
C     2.3981007636     -2.2494760325     0.4921745692
C     3.323534753     -1.0089979313     -1.2423577076
C     2.3980248229     -2.0853502947     -0.9761649725
C     3.3233452069     1.2585572504     -0.9893818061
C     2.8299760032     0.2065664148     -1.847606374
C     2.3980270501     2.0853478954     0.9761643599
C     2.3981028861     2.2494736558     -0.492175169
C     1.1815924911     2.0990225301     1.6363898832
C     1.4858369225     -0.2647490869     2.3688169546
C     0.7179970953     0.9517180923     2.4124909511
C     1.1815652162     -2.4085772852     1.1331733096
C     0.7181111371     -1.4608380741     2.1430630478
C     -0.0000014289     -2.8152710345     0.3843517067
C     1.1815901042     -2.0990237233     -1.6363902425
C     -0.0000013996     -2.6609038037     -0.9958002181
C     1.4858367307     0.2647475927     -2.3688173803
C     0.717995685     -0.951718838     -2.4124912218
C     1.1815673566     2.4085760869     -1.1331736637
C     0.7181121586     1.4608373263     -2.1430633167
C     0.0000014121     2.6609037415     0.9958000818
C     0.0000012648     2.8152710197     -0.384351832
C     -0.7179956152     0.9517188226     2.4124909933
C     -1.1815900545     2.0990238886     1.6363901924
C     -0.7181121191     -1.460837281     2.1430632015
C     -1.1815673951     -2.4085762523     1.1331735587
C     -1.4858365933     -0.2647475799     2.3688170203
C     -2.3981027301     -2.2494737387     0.4921746922
C     -1.181592437     -2.0990227642     -1.6363900777
C     -0.7179970313     -0.9517181606     -2.4124909817
C     -2.3980269641     -2.0853481546     -0.9761645535
C     -0.7181111128     1.4608379484     -2.1430631787
C     -1.1815652477     2.4085773275     -1.1331734389
C     -1.4858368161     0.2647489939     -2.3688168407
C     -2.398024716     2.0853504554     0.9761649142
C     -2.3981006392     2.2494760574     -0.4921743561
C     -2.8299758667     -0.2065663974     1.8476058373
C     -3.3233452599     -1.2585571243     0.9893812801
C     -3.3235347131     1.0089977893     1.2423573971
C     -3.3235359466     -1.0089945664     -1.242356839
C     -2.829976041     0.2065691329     -1.847605414
C     -3.3233442035     1.2585603305     -0.9893807355
C     -4.1189042032     -0.704686892     -0.0787743607
C     -4.1189035211     0.7046908857     0.0787750449


