48

 C     -4.1047895204     0.5992978026     0.2032391183
C     -3.5154543951     0.9627863008     -1.0393877001
C     -3.1770416688     -0.196425105     -1.8114718544
C     -3.8552431191     -0.8258984941     0.326185854
C     -3.3152370497     -1.3232526531     -0.9135614964
C     -3.1161503477     -1.0695955304     1.5101559762
C     -3.2618747864     1.2219894467     1.2101166679
C     -2.8035632199     0.2449789742     2.1182720831
C     -2.4786582019     1.9688050389     -0.832876487
C     -2.2824056035     2.1018033427     0.6060493821
C     -1.3653268406     1.9697706545     -1.6673964029
C     -1.9127835671     -0.2979624339     -2.4583799453
C     -1.0817504239     0.8318922873     -2.5333022322
C     -2.1089394008     -2.0756692025     -0.9553509627
C     -1.2762215374     -1.5393082639     -2.0329106931
C     -1.9363339653     -1.8414596525     1.5191032616
C     -1.4485104083     -2.4585856821     0.2784340632
C     -1.4686776716     0.2325474608     2.5420081192
C     -0.9506656237     -1.1219062766     2.3050816288
C     -0.9573561647     2.216671941     1.1395745242
C     -0.5809196687     1.3042703332     2.2265010715
C     -0.0980134158     2.4476831203     -1.1721488979
C     0.1187553198     2.6430547864     0.2326730802
C     0.3543321516     0.6910594993     -2.6118915087
C     0.9463007521     1.844654885     -1.9691136445
C     0.1302355463     -1.7014245191     -2.0473731637
C     0.9954014942     -0.5868147515     -2.5006501313
C     -0.0796048827     -2.7388514774     0.198817144
C     0.6638441848     -2.5583067261     -1.0189879586
C     0.4403171771     -1.4069094346     2.2467976675
C     0.8621273916     -2.4236463334     1.3038735999
C     0.8097341672     1.039446874     2.4618742262
C     1.3459158065     -0.34729873     2.5245184843
C     1.4877648033     2.5855945999     0.688121024
C     1.7928256736     1.838175111     1.9053356392
C     2.2695256991     1.8152741334     -1.501964934
C     2.5567915952     2.3373031427     -0.1995107235
C     2.3963431475     -0.5835588253     -2.128885126
C     3.0211828924     0.6154820699     -1.7074053967
C     2.0486492289     -2.5090516147     -0.6640725648
C     2.1628992539     -2.4077071627     0.8110349214
C     2.9103642577     -1.6109876727     -1.2339020118
C     2.7031692399     -0.3384089879     2.0265734871
C     3.0049158798     1.0449351922     1.6984108851
C     3.4972776352     1.385334898     0.4450272029
C     3.8352257789     0.3600481792     -0.4929711887
C     3.1052777513     -1.3640027514     1.1177667134
C     3.7163416552     -0.9758297932     -0.152033801


