48

 C     2.4598021848     2.2194040976     -1.5416432557
C     2.2283361192     2.6027790984     -0.1624815536
C     2.7246611863     1.6164789665     0.7299307191
C     2.9518904324     0.9108245784     -1.5101067537
C     3.2835615866     0.5624308877     -0.1397570213
C     2.0515688839     0.0223448745     -2.2347176509
C     1.1477004928     2.143399857     -2.1244155327
C     0.9044602607     0.8178273859     -2.633349751
C     0.8852093058     3.0838767194     -0.0352413544
C     0.167480624     2.7605639311     -1.3028895053
C     0.2161669208     2.8977858467     1.1694409054
C     1.9233384006     1.2172436106     1.8842040426
C     0.6922959008     1.8883057231     2.1198733366
C     1.9729790315     -0.1466092245     2.3003692433
C     3.2360310615     -0.7641472187     0.2451848954
C     2.8397960639     -1.0900232076     1.6036938701
C     1.9038640957     -1.3352927773     -1.8220417599
C     2.6414773225     -1.7824123467     -0.6430458973
C     0.6421868639     -1.9296259903     -2.0984697934
C     -0.4191751294     0.2957178872     -2.6534760774
C     -0.47748465     -1.148065486     -2.611243831
C     -1.1833867162     2.2989252662     -1.3000937981
C     -1.5320242035     1.0946550312     -2.088885524
C     -1.1972144776     2.8330882072     1.1211074607
C     -1.9225224538     2.5908039862     -0.0735099068
C     -0.4890869316     1.1781222055     2.595258248
C     -1.6388253317     1.8820396156     2.1390641763
C     0.7672608125     -0.8693198192     2.6603718041
C     -0.5217802441     -0.2665695439     2.6381715543
C     2.2669335226     -2.3656350979     1.6179071649
C     2.0570223417     -2.7359906003     0.231731038
C     0.9443251612     -2.2081599269     2.1580604762
C     0.0746429782     -2.9059481449     -1.1648936538
C     0.6918353229     -3.1333436758     0.0603780229
C     -0.0454220745     -2.7646634198     1.3049594193
C     -1.6823546765     -1.7791497192     -2.1930867213
C     -1.3330621013     -2.7544668822     -1.1619846738
C     -2.735580317     0.3792999026     -1.7157784379
C     -2.7747104615     -1.041312817     -1.7750284664
C     -3.0277921247     1.7505107861     0.3133039826
C     -2.7605968294     1.2125433555     1.6856226669
C     -3.4249189192     0.7200889376     -0.480563533
C     -1.6627886792     -0.995925407     2.0374767816
C     -1.3639160102     -2.2201760229     1.2590487092
C     -2.0800201561     -2.4668783699     0.0086444733
C     -3.1184625643     -1.5605570198     -0.4124854652
C     -2.8071355582     -0.2079162804     1.6260751883
C     -3.4765642666     -0.5068717592     0.3693107385


