48

 C     3.5521087034     0.4925691737     0.5454356775
C     3.1875893161     1.7326828463     0.1004816403
C     2.6859298681     1.5808997403     -1.3084611769
C     3.5467658427     -0.4235068719     -0.6289882433
C     2.7970537884     0.2196620681     -1.699168493
C     3.2175466657     -1.6704402306     -0.1761581385
C     2.8402544406     -0.1646901254     1.6324522955
C     2.7468908073     -1.5286063237     1.2446980379
C     1.6947854694     0.4851055746     2.2457182669
C     2.2229308099     2.4651175392     0.8135169725
C     1.4769214993     1.8718925822     1.8909110438
C     1.4956747524     2.3129458185     -1.4250359472
C     1.2874280596     2.9876377104     -0.1476900844
C     0.3590938191     1.7558943613     -2.1208368752
C     1.649985087     -0.4526210995     -2.2853509892
C     0.4432148392     0.35143002     -2.5907024663
C     2.2501960468     -2.4211916421     -0.8662946456
C     1.4676885179     -1.8430609125     -1.9262644671
C     1.5741634523     -2.2826747351     1.3887292656
C     1.3487074401     -2.9622708835     0.1158220512
C     0.5114823463     -0.3420667936     2.5792100237
C     0.443546988     -1.7478614037     2.1112492944
C     -0.7439519793     0.3303826845     2.7723619066
C     0.1219310693     2.3885992689     1.7628569149
C     0.0144985336     3.0551367675     0.4419608008
C     -0.9493725054     1.6831902237     2.241227162
C     -0.9160948356     2.2918391016     -1.7336782602
C     -1.0961680016     2.8360640103     -0.3620614715
C     -2.10278107     1.5920601891     -2.0177646156
C     -0.8029731144     -0.3452970781     -2.7540580535
C     -2.0466229398     0.303321826     -2.536255415
C     0.1264504592     -2.3861537475     -1.7663654857
C     0.0635803055     -3.0542905737     -0.4431262101
C     -0.9692053593     -1.701547134     -2.2187543595
C     -0.8296874559     -2.3088177228     1.7547662713
C     -1.0319526464     -2.8571430012     0.3865853833
C     -1.9791904778     -0.3423121769     2.5838882354
C     -2.0226434553     -1.6326441286     2.0667505781
C     -2.2446634622     1.7186825151     1.5326659632
C     -2.304703291     2.2797751558     0.206852494
C     -2.9670119402     1.5615317644     -0.8173718216
C     -2.8872419299     0.4999475034     1.7763285212
C     -2.918757143     -0.5567894658     -1.7076056291
C     -2.2467574597     -1.7619335107     -1.4795251025
C     -2.2640046567     -2.3244571984     -0.1524998936
C     -2.9152509046     -1.6189912746     0.8874451356
C     -3.4542857576     0.2373440594     -0.624299267
C     -3.4330975413     -0.3043444704     0.706400176


