48

 C     -4.2599287899     -0.4143925152     -0.3313674843
C     -3.6835205672     -0.1842435551     -1.5513114377
C     -3.0517984443     1.141012087     -1.6240926862
C     -3.9341319897     0.778543053     0.5004817432
C     -3.2029209682     1.7468345536     -0.3135480641
C     -3.304236372     0.2991749173     1.6443176039
C     -3.5583011189     -1.5748853802     0.2415003375
C     -3.0735732958     -1.1691098853     1.4733868529
C     -2.6817497377     -1.1954106913     -1.8829456243
C     -2.5555220582     -2.0599504671     -0.7406840287
C     -1.7757074916     0.9706786636     -2.1856922331
C     -1.5429697702     -0.5027126619     -2.3479298935
C     -0.6663499191     1.7586319551     -1.7550115539
C     -2.0654442801     2.3661834199     0.2286171072
C     -0.8822763067     2.5532558332     -0.5901301279
C     -2.0873591334     0.8545521706     2.1529229993
C     -1.5453470741     1.9827131137     1.5432558435
C     -1.7428846126     -1.4468169277     1.8958490878
C     -1.1502195623     -0.256468649     2.4426125491
C     -1.2593949975     -2.4400103832     -0.3321304623
C     -0.8967352833     -2.2890194889     1.0936831855
C     -0.2523524534     -1.030598761     -2.1509644959
C     -0.1461977813     -2.1743225789     -1.2553274552
C     0.6997237634     1.2880215747     -2.0660829354
C     0.9021926443     -0.1296747926     -2.3392492737
C     1.791426279     2.0148319616     -1.4835750506
C     0.2478557523     2.7393793888     0.2878656433
C     -0.0960762805     2.1759265091     1.5528789969
C     1.5430265195     2.6365986614     -0.2047978087
C     0.2623183278     -0.0675830833     2.5016724088
C     0.823479858     1.2533302396     2.1733647707
C     0.4581946104     -2.2873870751     1.4748464188
C     1.0608344059     -1.2143484764     2.228267829
C     1.1593425502     -2.553069543     -0.8383165978
C     1.4541189035     -2.7114920165     0.5448391562
C     2.2082116036     -0.687801051     -2.1258105788
C     2.3053199607     -1.8897924756     -1.3755195271
C     3.1291018741     1.4544825476     -1.3845213582
C     3.3183626106     0.1281600751     -1.6889006251
C     2.5853172722     2.2258515101     0.7069953059
C     2.1952063597     1.3272868689     1.7922384266
C     3.6435918927     1.6620981677     -0.0104991661
C     2.4795606464     -1.1235945356     1.8424765326
C     2.7507406369     -2.1586778355     0.8766342786
C     3.3720359239     -1.7908863201     -0.3521846353
C     3.9799665658     -0.5543178662     -0.5044650727
C     3.0611147421     0.1576732643     1.6789317371
C     3.9839575851     0.3913434799     0.5574213618


