48

 C     3.5836055063     -0.3279428158     -0.867069133
C     3.3821788007     -1.5238441042     -0.2416391664
C     3.1098798269     -1.2540043876     1.1989666809
C     3.6776654512     0.7281031124     0.190437626
C     3.1429515416     0.1597977492     1.4156855972
C     3.132443989     1.8710858009     -0.3255344117
C     2.633305746     0.1457314809     -1.8748537895
C     2.4651420122     1.5137055579     -1.6254102994
C     1.4623244376     -0.6669635895     -2.2403038845
C     2.401945541     -2.4336800033     -0.7381923253
C     1.4548781421     -2.0000503277     -1.7527268448
C     1.9880466416     -2.0378724226     1.54057299
C     1.6200706631     -2.8321132955     0.3692333251
C     0.9254580623     -1.4446401601     2.2525306876
C     2.0083584266     0.8141555774     2.0628386618
C     0.9424118749     -0.042962423     2.5354159542
C     2.2198279894     2.6573628037     0.4057537812
C     1.6013965707     2.112776328     1.5747816145
C     1.2051284996     2.1720065422     -1.6626643091
C     1.1375302234     2.9990557568     -0.4987546241
C     0.1510720926     0.0383379047     -2.4921620506
C     0.0246499905     1.4830044721     -2.1672732804
C     -1.0405832599     -0.7137438966     -2.4857703109
C     0.1653811298     -2.5803647942     -1.3766448065
C     0.2426442156     -2.9978955828     -0.0127814817
C     -1.0260466571     -2.0663544664     -1.8924473363
C     -0.4684908046     -1.8629911286     2.0309438379
C     -0.8282750375     -2.6690895373     0.8861335376
C     -0.4530698506     0.3874512307     2.5915454901
C     -1.3102610031     -0.7810336567     2.4182608185
C     0.1690236742     2.4576248441     1.5063698084
C     -0.0750554234     3.0468823826     0.2233175204
C     -0.8689813437     1.6513259255     2.0896679802
C     -1.223225052     1.9891015624     -1.7414063414
C     -1.2737019165     2.7967953238     -0.4828652252
C     -2.3551445826     -0.1412663257     -2.1796137785
C     -2.440238789     1.2100182964     -1.7872809008
C     -2.1968476791     -2.2371826845     -1.1514751254
C     -2.1252461136     -2.4689299504     0.2890329569
C     -3.1021048351     -1.1258927192     -1.4187071968
C     -2.6166468849     -0.6394656344     1.8772793102
C     -3.0444365575     -1.5609142031     0.8612383668
C     -3.7157380029     -0.7890118983     -0.2090631126
C     -2.2181381941     1.7728984232     1.5389096382
C     -2.3882118568     2.4104952321     0.2320554438
C     -3.2231962117     1.5487561357     -0.6083388707
C     -3.0915289316     0.6671429442     1.5362363053
C     -3.7621510614     0.5645916208     0.205769673


