48

 C     -3.67153962     1.0048615427     0.2136952739
C     -3.6048617454     -0.013799772     1.1511975049
C     -2.5263179052     0.319305131     2.1303811122
C     -2.7739226231     2.0872427158     0.6943137088
C     -1.9865008999     1.5813365323     1.8185270682
C     -2.1130361348     2.6141147438     -0.3821926852
C     -3.3031291445     0.7315489361     -1.1706173437
C     -2.391351563     1.7583998475     -1.5597595138
C     -2.9667634792     -0.5988962518     -1.5519819644
C     -3.4294867244     -1.3617605142     0.7638869126
C     -3.1788873133     -1.6578239628     -0.5868403444
C     -1.6989655752     -0.8278990291     2.2879034415
C     -2.2848695901     -1.8935603801     1.5295329585
C     -0.2684287402     -0.6810699502     2.3712765703
C     -0.56296002     1.7804468385     1.868306803
C     0.2684259931     0.6810883715     2.371271561
C     -0.718349331     2.8990355753     -0.3320522058
C     0.040738459     2.6727345313     0.8640624243
C     -1.1555015969     1.5070236385     -2.1751248103
C     -0.1650124563     2.396618858     -1.5699528814
C     -1.6889021697     -0.8598912137     -2.2214905624
C     -0.7359369054     0.1530284844     -2.5071273856
C     -2.0363738548     -2.5550070955     -0.6381677717
C     -1.4649466999     -2.6712314178     0.6874305506
C     -1.1966391127     -2.1452150872     -1.6852561618
C     0.5629577525     -1.7804323497     1.8683210742
C     -0.0407396147     -2.6727278959     0.8640830239
C     1.9864987652     -1.5813224419     1.8185414226
C     1.698962919     0.8279167937     2.2878988937
C     2.5263153752     -0.3192887744     2.1303862577
C     1.4649458498     2.6712367797     0.687411458
C     2.2848678287     1.8935720414     1.5295209187
C     1.196640819     2.145202225     -1.6852716482
C     2.0363742737     2.5550020095     -0.6381850016
C     0.7359396277     -0.1530477311     -2.5071254241
C     1.6889045441     0.8598741689     -2.2214954678
C     0.1650141482     -2.3966308196     -1.5699339346
C     0.7183496257     -2.8990380301     -0.3320290736
C     1.1555039146     -1.5070403239     -2.1751117925
C     2.7739218288     -2.0872373317     0.6943327726
C     2.1130365849     -2.6141177837     -0.3821702494
C     2.3913532424     -1.7584118214     -1.5597433489
C     3.6048603763     0.0138087126     1.1512012832
C     3.4294860678     1.3617665367     0.7638804159
C     3.1788877832     1.6578193865     -0.5868495782
C     2.9667651511     0.5988843914     -1.5519832761
C     3.6715394965     -1.0048598977     0.2137070377
C     3.3031303932     -0.7315579165     -1.1706080225


