48

 C     -3.5657302718     -0.0864971777     -0.3667903291
C     -3.1865148744     -1.3919037062     -0.1626306097
C     -2.4103516369     -1.8468012727     -1.3299132493
C     -3.0032180986     0.3202536754     -1.6874409692
C     -2.1782255057     -0.7377273146     -2.2053213861
C     -2.4901602308     1.5852135142     -1.5376819876
C     -3.2300314836     0.9396484732     0.6053545505
C     -2.6560877132     2.0240614835     -0.1425864346
C     -2.6159243122     0.5614496066     1.8089735057
C     -2.4849669867     -1.8072771785     1.0274285133
C     -2.311321408     -0.8566567736     2.0552950487
C     -1.3699594194     -2.6498733543     -0.8651936919
C     -1.3660285106     -2.6443320935     0.6116661987
C     -0.1508643979     -2.6040101002     -1.5817868525
C     -0.8249207919     -0.4443927174     -2.6629149281
C     0.134337537     -1.474382766     -2.4863195779
C     -1.1748269169     1.9419661179     -1.9864584838
C     -0.331525893     0.9636553759     -2.6083916923
C     -1.4800172725     2.6836640799     0.2443114347
C     -0.645183751     2.8307210584     -0.9659891904
C     -1.4707089049     1.3364699266     2.3032554384
C     -0.858493254     2.3727218084     1.5169833053
C     -1.0943777453     -0.9019287064     2.7955628034
C     -0.6258106133     0.4311592917     3.0126804142
C     -0.1173860014     -2.6446043403     1.3055184611
C     0.0129933072     -1.7274092915     2.4268228924
C     1.0286509539     -2.9386171821     -0.9124160555
C     1.0883265131     -2.9155401441     0.5467902795
C     1.5763715354     -1.2234753974     -2.3823757693
C     2.1342389215     -2.1943222632     -1.4692601082
C     1.0913561449     1.1906757647     -2.4957088136
C     2.0451942372     0.0836671358     -2.3316536493
C     0.7201174295     3.0150262125     -0.8564723726
C     1.5743763736     2.2748715623     -1.7302013725
C     0.5870660137     2.5059293325     1.5873706804
C     1.3189006574     2.9422462466     0.4667338926
C     0.8010984969     0.4296237982     2.8953689245
C     1.22547802     -0.9490460343     2.6086223643
C     1.4230622223     1.4870866199     2.2543789741
C     2.2943538855     -2.2477864044     0.8586091893
C     2.9190317191     -1.7766169822     -0.3927251224
C     2.3380544605     -1.1743771364     1.7879417086
C     3.030727399     0.4744629067     -1.307047413
C     2.7391335299     1.8194534243     -0.9644731985
C     2.5752207744     2.2224740137     0.3676168203
C     2.6246320408     1.2659023967     1.43684193
C     3.3252874418     -0.4266551348     -0.2429162879
C     3.0346243795     -0.0381713538     1.1505442153


