48

 C     4.1526477178     0.171726885     -1.2534381806
C     4.2356933994     -1.049360184     -0.4866052712
C     4.0659207772     -0.7049100838     0.8538197123
C     3.8441581871     1.2627108568     -0.3043199122
C     3.8404093056     0.7449557504     1.0017733812
C     2.6549674276     1.9816846386     -0.7537997206
C     2.9533565252     0.0643764345     -1.9954250388
C     2.0878593216     1.214020908     -1.8530165665
C     3.0603763389     -1.8885010761     -0.7970674207
C     2.3104435321     -1.2385608752     -1.797765192
C     2.9306859685     -1.3876257569     1.4460942957
C     2.3477853122     -2.2590617685     0.4332142104
C     2.6677356372     0.8915527674     1.8343643889
C     2.1061986405     -0.4548295669     2.1102966969
C     1.7482091764     2.4670490859     0.1933133863
C     1.7328606453     1.8626646669     1.5306205494
C     0.385343155     2.6851596962     -0.177459726
C     0.6822132815     1.0996494441     -2.0294565787
C     -0.1459094631     2.1012251514     -1.3712914275
C     0.8888673469     -1.3510463422     -1.8331875599
C     0.0611344723     -0.2244525523     -2.2333078267
C     0.9776804705     -2.398755909     0.4012242518
C     0.2894098037     -2.2866264869     -0.9054060536
C     0.6834266862     -0.6703251862     2.1824283089
C     0.1723190842     -1.8553716888     1.5298304543
C     0.3316965314     1.7061927145     1.9034350381
C     -0.4415308791     2.5194973349     1.0171028362
C     -0.2330197687     0.4587855488     2.3152424517
C     -1.8124351447     2.3740172637     0.9223191515
C     -1.563096594     1.9811172293     -1.454005897
C     -2.4240581938     2.5035333347     -0.3907787075
C     -1.3842818981     -0.3692007438     -2.2057711134
C     -2.1953015659     0.8236121119     -2.0222603541
C     -1.0854732218     -2.4397343275     -0.9176460798
C     -1.9456657594     -1.6184738946     -1.7399945378
C     -1.2089318038     -2.0527345625     1.481843407
C     -1.7900430639     -2.7476770228     0.3316791045
C     -1.695373938     0.2636796767     2.1957625985
C     -2.5037381138     1.341210721     1.6639404475
C     -2.1690290549     -1.0764203662     1.9747593399
C     -3.6077930149     1.7780647158     -0.3831125117
C     -3.5080411935     0.7410869505     -1.4037927489
C     -3.6974732701     1.0565372064     0.8844663987
C     -3.2436585025     -1.6483418259     -1.0891874259
C     -3.0912950653     -2.3207667315     0.1948823279
C     -3.3912693974     -1.3119460626     1.2269089149
C     -3.9695600635     -0.4725880546     -0.8734952932
C     -4.1044207739     -0.2667990245     0.642267492


