48

 C     -3.6565517477     0.3598590226     0.1982391597
C     -3.4604971598     -0.8670741054     0.8166166646
C     -2.9481063385     -1.8311806929     -0.1799943629
C     -3.3426597471     0.1550969847     -1.2545561492
C     -2.7278571256     -1.1413964949     -1.4096467123
C     -2.7357479124     1.2738721098     -1.7344282898
C     -2.9734870326     1.5307215907     0.6351089049
C     -2.6302617523     2.2347656882     -0.5945609997
C     -1.974570311     1.4448956806     1.696216095
C     -2.6353825088     -0.9504611415     1.95480576
C     -1.8719984839     0.1654801888     2.3782229178
C     -1.9391632634     -2.6121479009     0.4516519088
C     -1.7412543297     -2.106138332     1.7873339337
C     -0.8004209043     -2.9237495243     -0.2859976657
C     -1.4415119834     -1.2420935056     -2.0770760119
C     -0.6275054648     -2.3400868387     -1.6443086549
C     -1.4441952765     1.2217643836     -2.4014432066
C     -0.7421212522     -0.0264547937     -2.5561766019
C     -1.4456916764     2.8784911776     -0.7286808491
C     -0.7338994079     2.3546758487     -1.9279865949
C     -0.7341134866     2.2367898503     1.5655457551
C     -0.4916685625     2.9701469798     0.3408923632
C     0.4597720282     1.7806970422     2.2431324863
C     -0.557202738     -0.3870073442     2.7301047381
C     -0.4594331819     -1.780432727     2.2434109497
C     0.5576150992     0.3873288346     2.7299751478
C     0.4917203878     -2.9701070299     0.3411675114
C     0.7343500921     -2.23660527     1.5656977117
C     0.7336083443     -2.3549031779     -1.927820679
C     1.4455819408     -2.8785778294     -0.7285606524
C     0.7417348021     0.0261538521     -2.556290712
C     1.443832267     -1.2220468086     -2.4015162075
C     0.6272570146     2.3398928852     -1.6446786547
C     0.800377843     2.9237153921     -0.2864625954
C     1.4411979176     1.2418486033     -2.0774395914
C     1.7415241302     2.106348455     1.7868229241
C     1.9392315653     2.6122008639     0.45105168
C     1.8723577502     -0.1652002388     2.3779600979
C     1.9748265915     -1.4446960153     1.6960882448
C     2.6356775686     0.9506911723     1.9542958027
C     2.6301718948     -2.2348358088     -0.5946948441
C     2.7354857462     -1.2740760895     -1.734690822
C     2.9735828883     -1.5306469119     0.6348402649
C     2.727644194     1.1412306153     -1.4101929891
C     2.9480792928     1.8311594349     -0.1806552162
C     3.46062042     0.8671701436     0.8159921172
C     3.3424704043     -0.1552445869     -1.255042553
C     3.6565814645     -0.3598356317     0.197729476


