48

 C     -3.8554209501     -0.7606316297     -1.1659316113
C     -3.1192741294     0.2244576225     -1.9180272177
C     -3.1753254333     1.4458237539     -1.2509114934
C     -4.2110243398     -0.189840606     0.1230679205
C     -3.8703099909     1.2007489814     0.0647514453
C     -3.5567783577     -0.9851059987     1.1014053294
C     -2.9862446758     -1.8794340508     -0.9990574033
C     -2.8631382671     -2.1053418936     0.3877488452
C     -1.8167480078     -0.3245080555     -2.3013748951
C     -1.748441892     -1.6430365151     -1.7508718723
C     -0.6436848476     0.4911792514     -2.2847541713
C     -1.9721965299     2.1978683104     -1.0444903242
C     -0.7150926175     1.7952201722     -1.6389446741
C     -3.0330984843     1.7482593641     1.0209674046
C     -1.9611207224     2.5244471843     0.3398236699
C     -2.6007139936     -0.4451265318     2.0071093975
C     -2.3641522296     0.959759822     2.030182241
C     -1.5986366267     -2.3221697925     0.9466853946
C     -1.406409648     -1.3244226406     1.9910365369
C     -0.5023399587     -2.1460859231     -1.2699191372
C     -0.4681508091     -2.6030847341     0.1111338285
C     0.6364385724     -0.2104528344     -2.3294177878
C     0.7096782075     -1.5833051932     -1.8471489647
C     1.8095816707     0.6014254799     -2.2507312555
C     0.4986812524     2.2840983806     -1.0014676113
C     1.7433771296     1.8434485171     -1.5438655306
C     -0.7829041863     2.4557256159     1.0823110094
C     -0.989643753     1.4279584818     2.0945598751
C     0.4690874174     2.5706454545     0.424768525
C     -0.1081866016     -0.8689712192     2.3356467278
C     0.115893805     0.580144942     2.4236363586
C     0.7858377938     -2.5688102775     0.7734427105
C     0.9961233781     -1.6703462196     1.9025136236
C     1.9685845101     -2.0551147544     -1.3101587509
C     1.9615063357     -2.5469552317     0.0247226145
C     3.112884658     0.0098056242     -1.9408178344
C     3.1712833011     -1.283934011     -1.4279938244
C     2.9829840765     1.9869908045     -0.7727073418
C     3.8518743747     0.8963042243     -1.0770302572
C     1.6021154215     2.191095298     1.2165973489
C     1.412957991     1.0744724915     2.1327503559
C     2.865172541     2.043873137     0.631263205
C     2.3701693522     -1.198045239     1.8911921445
C     3.0356643927     -1.8583997467     0.7915239125
C     3.8700279673     -1.1993694278     -0.0939092413
C     4.2113706019     0.1740867308     0.1314907614
C     2.6072247866     0.1995444374     2.0376748526
C     3.5605175149     0.8451074442     1.2015271613


