48

 C     3.9555472467     0.5478631465     -0.404509353
C     3.9555475882     -0.5478612528     0.4045129311
C     3.2746083847     -1.6629060421     -0.2734057063
C     3.2385973743     0.2233947443     -1.6431204708
C     2.852638736     -1.1904430311     -1.5827562049
C     2.2453203534     1.1856462125     -1.8061090145
C     3.2746070161     1.6629075665     0.2734085338
C     2.2871802615     2.1148334871     -0.6052459694
C     3.2385964017     -0.2233931021     1.6431235254
C     2.8526368107     1.190444571     1.5827587059
C     2.2871810892     -2.1148327137     0.6052480691
C     2.2453196602     -1.1856453025     1.8061113336
C     1.0590220512     -2.6568056227     0.1083063939
C     1.5859236628     -1.5483658033     -2.0405660174
C     0.7570562226     -2.4607572613     -1.2775987564
C     0.9579731089     0.8364481433     -2.3757584682
C     0.6643281857     -0.5558200615     -2.574671375
C     -0.1416438011     1.691813565     -2.1316840505
C     1.0590207422     2.6568057175     -0.108305596
C     -0.0596053012     2.697959238     -1.0137476169
C     1.58592109     1.5483667386     2.0405674468
C     0.7570538364     2.4607574934     1.2775991521
C     0.9579714589     -0.8364477439     2.3757597136
C     0.6643255739     0.5558205546     2.5746722552
C     -0.0596049634     -2.6979598368     1.0137476342
C     -0.1416450622     -1.6918140083     2.1316842984
C     -1.3367803183     -2.9173578595     0.5376221949
C     -0.6208425265     -2.306387833     -1.7157250149
C     -0.6913646759     -1.0504063977     -2.4527610321
C     -1.6602307905     -2.6542919168     -0.857365909
C     -1.4879687319     1.2456823707     -2.2294868569
C     -1.8068988856     -0.1646507458     -2.3116692591
C     -1.3367808689     2.9173566552     -0.5376235851
C     -2.2584230935     2.0937548731     -1.3288296831
C     -0.620845261     2.3063876021     1.7157242009
C     -0.6913675857     1.0504062809     2.4527604096
C     -1.6602326762     2.6542910156     0.8573640098
C     -1.4879706679     -1.2456833154     2.2294858645
C     -2.2584239554     -2.0937564195     1.3288277239
C     -1.8069014532     0.1646500513     2.311667649
C     -2.8746269964     -1.8796881293     -0.8764343208
C     -2.9706619635     -0.6538722652     -1.5574033934
C     -3.2752022724     -1.6169140515     0.534111528
C     -3.2752020261     1.6169123641     -0.5341148693
C     -2.8746284918     1.8796868369     0.876431192
C     -2.9706640419     0.6538710837     1.5574005247
C     -3.6939313136     0.273997606     -0.6533977743
C     -3.6939321311     -0.2739992024     0.6533940074


