48

 C     -3.0458626121     -1.8199916367     0.3700022894
C     -3.4221581751     -0.5044769395     0.4307876024
C     -3.2592220577     0.1168120865     -0.9075199465
C     -2.6002144704     -2.0680275537     -1.0301427527
C     -2.5824560488     -0.8076275192     -1.7546834603
C     -1.477788999     -2.8418236142     -0.9673956274
C     -2.0205362113     -2.3324351482     1.2663870694
C     -1.1238913982     -3.0818310904     0.4596117342
C     -1.449167451     -1.4477069638     2.2212025102
C     -2.8824859817     0.4147310814     1.4025526228
C     -1.9272351137     -0.0743310438     2.3191186381
C     -2.8395835724     1.4401957694     -0.7375923248
C     -2.6488899895     1.67544465     0.7201893581
C     -1.8885682529     1.9473275243     -1.6568403854
C     -1.3743840078     -0.3904393243     -2.4377053837
C     -1.1275475078     1.0249540545     -2.4679802698
C     -0.2716129896     -2.5097202314     -1.6655989234
C     -0.2051302416     -1.3043393289     -2.4425663154
C     0.270368104     -3.0266031794     0.5784474829
C     0.8233455677     -2.9036046421     -0.7899488628
C     -0.0126275803     -1.4620313659     2.448204634
C     0.8733111285     -2.2768352644     1.6577196194
C     -0.7871269599     0.7572942417     2.6678835225
C     0.3868440695     -0.1092851672     2.8020324112
C     -1.6087953327     2.5118197932     1.1394082328
C     -0.6340175937     2.0252086543     2.1264909333
C     -1.007560466     3.0011887797     -1.2150116703
C     -0.8651337591     3.244914193     0.1636634516
C     0.2458761288     1.5652029269     -2.5018038464
C     0.3089182491     2.7515271479     -1.7158491074
C     1.1261275968     -0.7424658822     -2.5699549891
C     1.3451831152     0.720070434     -2.4879955913
C     2.0860267448     -2.3648185181     -0.977925313
C     2.2339378388     -1.346009741     -1.9751203395
C     2.2252614828     -1.797997621     1.4445197632
C     2.8419243672     -1.9332256909     0.1775816919
C     1.6646577791     0.3883986307     2.522354395
C     2.6184463809     -0.4941719479     1.9426721689
C     0.705208503     2.5096524769     1.7137370785
C     0.554030553     3.2538454655     0.5180905468
C     1.2921906817     2.8830102345     -0.646318837
C     1.8228114909     1.6906772628     1.8798255335
C     2.4940354512     0.9919670625     -1.6438730724
C     3.0907045532     -0.2807688097     -1.4005719368
C     3.5332594345     -0.669319062     -0.1424666352
C     3.3771600604     0.2182399817     0.9517845321
C     2.3817327378     1.9573180176     -0.5624673799
C     2.7606347534     1.5000858169     0.7730651482


