48

 C     -4.0225433331     -0.6781558608     -0.1889754018
C     -4.0225406737     0.6781721787     0.1889765185
C     -3.2384150107     1.3877757624     -0.7799559155
C     -3.1572528611     -0.8001016543     -1.3606289609
C     -2.6421557636     0.4884894523     -1.7364337065
C     -2.2303070901     -1.8762042996     -1.2404633216
C     -3.2384205596     -1.3877627258     0.7799568636
C     -2.3988507092     -2.3676745598     0.1475668779
C     -3.1572492286     0.8001143379     1.3606298588
C     -2.6421572857     -0.4884788904     1.7364343885
C     -2.3988411069     2.3676841988     -0.1475662425
C     -2.2302990639     1.8762130619     1.2404639037
C     -1.2918421118     2.774907332     -0.8358225898
C     -1.2589784504     0.657863857     -2.1493296673
C     -0.676889374     1.9273986892     -1.8889366966
C     -0.9186160655     -1.814259772     -1.7911970084
C     -0.3568941886     -0.5103517569     -2.2354655505
C     -0.0192164458     -2.8170557804     -1.2714149716
C     -1.2918531565     -2.7749024251     0.8358229566
C     -0.226448768     -3.3111918665     0.070277472
C     -1.258980502     -0.6578590509     2.1493300304
C     -0.6768966143     -1.9273962611     1.8889370611
C     -0.9186081573     1.8142631188     1.791197165
C     -0.3568914523     0.510352915     2.2354656056
C     -0.2264354676     3.3111928195     -0.070277453
C     -0.0192047675     2.8170554706     1.2714147228
C     0.741816673     2.1393378359     -1.8143236626
C     0.9884366689     3.1742746597     -0.8000379235
C     1.0886259567     -0.3037105936     -2.2210475478
C     1.6605505986     1.0487276564     -1.968791501
C     1.371961244     -2.662824011     -1.4338097095
C     1.9362223178     -1.4618858979     -1.9028237117
C     0.9884243299     -3.1742786478     0.8000376778
C     0.7418087506     -2.1393410721     1.8143236502
C     2.0245081647     -3.0164227306     -0.1296247657
C     1.0886278746     0.3037060192     2.2210471531
C     1.6605471151     -1.0487344663     1.9687909915
C     1.3719721795     2.6628183262     1.4338091669
C     2.0245200343     3.0164145561     0.1296242182
C     1.936228577     1.4618779778     1.9028229532
C     2.9249743257     1.173787467     -1.2326928294
C     2.997650401     2.0809957392     -0.1174872395
C     3.1516709158     1.2614224638     1.1201004283
C     3.1516656807     -1.2614348709     -1.1201014226
C     2.9976423437     -2.0810076395     0.117486285
C     2.9249701716     -1.1737990443     1.2326919544
C     3.5519813389     -0.0193457394     -0.7539767826
C     3.5519815456     0.0193317215     0.7539756787


