48

 C     4.2260290213     -0.5703079983     -0.0645903467
C     3.8923225627     0.2836124803     0.9773535316
C     3.3295548888     1.5266218983     0.5174953582
C     3.6780031789     0.0949034751     -1.2566448227
C     3.0903295743     1.3879281038     -0.8912279094
C     2.8308053082     -0.7973186159     -1.9035902986
C     3.40004118     -1.7642714059     0.1380183708
C     2.7214614219     -2.0218809673     -1.0508500481
C     2.8976235382     -0.3106805943     1.87279884
C     2.5723870459     -1.6077848299     1.3639036955
C     2.2424632816     1.8534673003     1.4012267274
C     1.8935920199     0.6490610407     2.190080057
C     1.2176732376     2.5825287173     0.8892007495
C     1.8103759274     1.7958086735     -1.4131867585
C     1.0918960756     2.7171086178     -0.5705402944
C     1.506220587     -0.4650837711     -2.3180828648
C     0.9673884601     0.8603040717     -2.1798353605
C     1.3735864094     -2.4023905508     -1.0335694925
C     0.6379153824     -1.577386979     -1.9858477859
C     1.2212677     -2.0073968282     1.3872350408
C     0.7030900389     -2.7010781368     0.1971711077
C     0.529786813     0.2621472368     2.3067909214
C     0.2278067223     -1.1538604428     2.0972434891
C     -0.1365305748     2.4654658076     1.4319296273
C     -0.5480697788     1.2647080212     2.0787961353
C     -0.2414927969     2.9906359193     -0.8161295224
C     -0.9900673483     3.0817593098     0.4711508068
C     -0.5024417892     1.0015433009     -2.2225842065
C     -1.0545656139     2.2378144608     -1.7122400445
C     -0.7680565356     -1.4914302432     -1.9584023691
C     -1.3887541275     -0.1877984298     -2.2185759126
C     -0.6721691448     -2.8816182655     0.0733437413
C     -1.410071268     -2.4510503143     -1.0925732283
C     -1.1294172087     -1.5197213747     2.033998651
C     -1.5439242083     -2.645419061     1.2084246988
C     -1.9656448031     0.8498543624     1.9329802776
C     -2.2398634333     -0.5610965773     2.0508370096
C     -2.2764185329     2.6725812556     0.2744426776
C     -2.3884613305     2.2878495219     -1.159593945
C     -2.8573343058     1.6283324349     1.0770234953
C     -2.7640831156     -0.0510155907     -1.7891609724
C     -3.2009022497     1.1917616873     -1.2030865689
C     -3.7223867775     0.9073148405     0.166519567
C     -2.7715101326     -2.2671188107     -0.6597728722
C     -2.8573345194     -2.4537171869     0.7866795004
C     -3.3144371309     -1.1817274444     1.3186286412
C     -3.4009554801     -1.0772450878     -1.0050449172
C     -3.916726169     -0.4447150308     0.2618578231


