48

 C     1.7812354272     -2.965270279     0.4616340356
C     2.2996535268     -2.4737720838     -0.72878812
C     3.159602612     -1.3251909292     -0.433098799
C     2.1672959905     -2.0130713109     1.5170530222
C     3.0618552574     -1.0430998396     0.972743761
C     0.988937899     -1.63068966     2.18302993
C     0.3933008383     -3.2776333088     0.5857470657
C     -0.094724861     -2.5286248217     1.7507066149
C     -0.3932946722     -3.2776341301     -0.5857463071
C     1.4114506237     -2.095273306     -1.8012201897
C     0.0947296127     -2.5286250035     -1.7507059454
C     2.9065261712     -0.3064999513     -1.3762660794
C     1.7297990371     -0.709110296     -2.1699848524
C     3.0618530966     1.0431054688     -0.9727438942
C     2.9065256826     0.3065052921     1.3762658879
C     3.1596001111     1.32519681     0.4330982254
C     0.7094219901     -0.2266272173     2.475507767
C     1.7297980819     0.7091135727     2.1699846258
C     -0.7094217821     0.2266278848     2.4755077283
C     -1.4114467858     -2.0952755572     1.8012207741
C     -1.7297978554     -0.7091129693     2.1699850985
C     -1.7812299124     -2.9652738061     -0.4616334344
C     -2.2996490163     -2.4737763119     0.7287886336
C     -0.9889347971     -1.630692029     -2.1830294354
C     -2.1672921701     -2.0130757465     -1.5170526988
C     0.7094214234     0.2266284467     -2.475507735
C     -0.7094214613     -0.2266291475     -2.4755076243
C     2.1672920287     2.0130753132     -1.517053365
C     0.9889347917     1.6306914563     -2.183029824
C     2.2996489708     2.4737764551     0.7287877078
C     1.4114468904     2.0952760082     1.8012199471
C     1.7812298219     2.9652735495     -0.4616343691
C     -0.9889377249     1.6306902739     2.1830294192
C     0.0947250563     2.5286252133     1.7507057891
C     -2.167295693     2.0130717011     1.5170525804
C     -2.9065256453     -0.3065049139     1.3762661261
C     -3.1596002494     -1.3251967275     0.4330989466
C     -3.0618531737     -1.0431057398     -0.9727435541
C     -3.0618550138     1.043100103     0.9727435283
C     -1.7297990973     0.7091097008     -2.1699848061
C     -2.906526039     0.3064995647     -1.3762660203
C     -3.1596023039     1.325190779     -0.4330988116
C     -0.0947296435     2.5286244606     -1.7507065329
C     0.3932946888     3.2776338567     -0.5857471951
C     -0.3933006665     3.2776333016     0.5857461474
C     -1.7812351788     2.9652702772     0.4616333384
C     -1.4114505631     2.0952727869     -1.801220564
C     -2.2996533244     2.4737718097     -0.728788543


