48

 C     -3.8780346538     -0.0839408263     -0.9835391525
C     -3.8601203042     0.2668904454     0.4065562997
C     -3.5282468041     -0.9107578356     1.1411340488
C     -3.2148486472     -1.3930346892     -1.0857669977
C     -3.0869069379     -1.9780029161     0.1613678684
C     -2.0506062104     -1.2725006789     -1.9346053107
C     -3.0522546609     0.8290520271     -1.6635831405
C     -1.9637997045     0.1225118088     -2.3030072348
C     -3.0598690796     1.4660747731     0.5985899011
C     -2.6677606311     1.8856859975     -0.7493368104
C     -2.0671832949     1.5286632618     1.6587539348
C     -2.5641872627     -0.8561264413     2.120177685
C     -1.8267977719     0.3341106997     2.440392281
C     -1.809522034     -2.4837044089     0.5943790863
C     -1.5818364723     -1.9412694143     1.8927279641
C     -0.8489100386     -1.976208081     -1.6218794177
C     -0.6731425486     -2.5779367924     -0.2970137073
C     0.3292487282     -1.5065966462     -2.296324821
C     -0.6692493827     0.7593146386     -2.491597656
C     0.4655307716     -0.0941798179     -2.6562867606
C     -1.4564378331     2.5481234881     -0.9585440861
C     -0.4367262497     2.0203584276     -1.9007362361
C     -0.9125638825     2.3656304642     1.4300773291
C     -0.7214651675     2.9478322156     0.1627695085
C     0.4367315362     2.0203895649     1.9007018619
C     -0.4655309532     -0.0941334727     2.656288331
C     -0.3292526962     -1.5065565558     2.2963502103
C     0.6692514304     0.7593552017     2.4915846968
C     0.6731357469     -2.5779337464     0.2970573152
C     0.8489049036     -1.9761827988     1.621912978
C     1.5818312583     -1.9413058955     -1.892695035
C     1.8095153575     -2.4837196017     -0.5943369317
C     1.8267985417     0.3340643458     -2.4403979413
C     2.5641848823     -0.856169374     -2.1201630654
C     0.912569993     2.3656037167     -1.4301174661
C     0.72147278     2.9478275502     -0.1628195592
C     1.4564444371     2.5481359631     0.9585008078
C     2.0671872046     1.5286295452     -1.6587797989
C     2.66776553     1.8856917739     0.7493047815
C     3.0598727781     1.4660564913     -0.5986147639
C     1.9638000707     0.1225458262     2.3030050638
C     2.0506028268     -1.2724734319     1.9346268204
C     3.0522565543     0.82907216     1.6635689585
C     3.0869016907     -1.9780140162     -0.1613343496
C     3.5282442355     -0.9107867718     -1.1411185889
C     3.8601208873     0.2668732281     -0.4065607976
C     3.2148448814     -1.3930249307     1.0857905408
C     3.8780341953     -0.083934471     0.9835403564


