48

 C     3.408240895     -1.6900200494     -0.6849073779
C     3.5368810134     -1.1021683084     0.6626201606
C     3.7546202344     0.2692574764     0.5111700558
C     3.2037899119     -0.5739106163     -1.6017250401
C     3.4842960318     0.6146193054     -0.939658103
C     1.9237317809     -0.7233520029     -2.2735023177
C     2.2271890589     -2.404694033     -0.6960826505
C     1.3496875947     -1.9426681585     -1.7720104916
C     2.4249423022     -1.526815074     1.4706318287
C     1.6365690046     -2.4357606771     0.6365416158
C     1.7142919965     -0.5758134663     2.3078799112
C     3.0517179087     1.2033609195     1.2807619912
C     2.0421235224     0.8309555602     2.2052837825
C     2.583865429     1.7250201756     -0.9694462694
C     2.4775089913     2.2039098981     0.3770081457
C     1.0737024707     0.4131963336     -2.5061571166
C     1.3884523136     1.6951556699     -1.807854102
C     -0.2785103485     0.1007746915     -2.7675905269
C     -0.0420649737     -2.1311491167     -1.6790432885
C     -0.8123422629     -1.2278965258     -2.4785687429
C     0.2490718915     -2.5983823535     0.7918303639
C     -0.6332983633     -2.6612392143     -0.4152650401
C     0.3660582928     -0.8994590913     2.5993064637
C     -0.2904361844     -2.0292242553     2.0020364884
C     -0.6668302035     0.1378322904     2.8103612692
C     0.9458567723     1.810818323     2.0632774284
C     1.2666774925     2.6488342656     0.9118500782
C     -0.4028191838     1.4929160321     2.3498334317
C     0.2987039282     2.4947561744     -1.3885207612
C     0.2398013229     2.9980346827     0.009740082
C     -1.3619006388     1.0592481855     -2.5332668333
C     -1.0706902543     2.2230510352     -1.7884781453
C     -2.206475085     -1.0962921796     -2.2570728913
C     -2.5501807059     0.3417571997     -2.2395255597
C     -2.0256778741     -2.4856003843     -0.2341282044
C     -2.8077453024     -1.733619713     -1.1913451613
C     -1.6905157374     -1.8042242321     2.1144721145
C     -1.9250280807     -0.4337189224     2.6140106233
C     -2.5371236329     -2.0673257626     1.0689275031
C     -3.3346321266     0.5942696695     -1.0814247239
C     -3.5884113027     -0.6989186362     -0.4647320089
C     -2.920144595     0.1683055301     1.7692687306
C     -3.4133525382     -0.8944870584     0.8855592391
C     -1.4541212063     2.1353436362     1.5730619046
C     -1.0841638606     2.9287419153     0.4381483477
C     -1.9308888187     2.5389252646     -0.6827612429
C     -2.6827402385     1.4371951224     1.2262155463
C     -2.9376856422     1.6704594744     -0.2267305065


