48

 C     -3.5465228637     -1.3755434332     -0.2197867473
C     -3.7481990583     0.025261632     -0.0345887403
C     -3.3336867782     0.6780177431     -1.2130436198
C     -2.8486935174     -1.6183840626     -1.4614045229
C     -2.7389566328     -0.3340109254     -2.1128831236
C     -1.6692257262     -2.3173328721     -1.1429548033
C     -2.7915624982     -1.8815640075     0.8687501562
C     -1.6658856467     -2.576574408     0.3400741544
C     -3.1842295365     0.4051309955     1.2633161027
C     -2.5924694677     -0.8245130554     1.8401259227
C     -2.4794558803     1.5942980095     1.3542586013
C     -2.4738265449     1.8031563965     -1.1510995626
C     -2.1907018704     2.3813259457     0.1222517647
C     -1.5134986544     0.1555172201     -2.547802349
C     -1.3677921733     1.5561665132     -2.0585107298
C     -0.4295422556     -1.9834648168     -1.7895228951
C     -0.3467402453     -0.7082613142     -2.5553412695
C     0.7537838111     -2.4646011028     -1.1821353159
C     -0.4538150463     -2.585241081     1.0499481769
C     0.7401080399     -2.8258102489     0.2739922003
C     -1.3727466527     -0.7660565855     2.5062994304
C     -0.3312791553     -1.7418780867     2.2282487856
C     -1.2794626007     1.6804228652     2.2051781491
C     -0.7196136713     0.5127764761     2.7580366034
C     -0.9418648365     2.9862508789     0.3008494715
C     -0.3926202572     2.6148743889     1.613231497
C     -0.0953468288     2.1135632411     -1.8486423203
C     0.1089345563     2.9192615856     -0.6489808135
C     0.9072724153     -0.0863911799     -2.6645737661
C     1.0400118404     1.3705574584     -2.358564239
C     2.0474467574     -1.9443370406     -1.5016679734
C     2.1306729937     -0.7374958994     -2.261565069
C     1.9866546597     -2.5438582844     0.7942205114
C     2.8580044164     -2.0701447719     -0.3051507673
C     0.9269994434     -1.1286802187     2.5124450462
C     0.7097225283     0.3077804701     2.7347611778
C     2.1074674471     -1.5968043633     1.8924825618
C     0.9906144217     2.4127348089     1.5020799867
C     1.3356392247     2.744905957     0.0989156921
C     1.5928472847     1.2569628222     2.1240058962
C     2.3105702971     1.5805358404     -1.8378779017
C     3.0286773012     0.2947466255     -1.817448039
C     2.448492617     2.1718639072     -0.5139203239
C     3.6189732827     -1.0156555839     0.1621914181
C     3.0874223289     -0.6495428374     1.5046404641
C     2.8156573331     0.7508717993     1.5216661703
C     3.7072834624     0.1806205468     -0.600220381
C     3.2544859364     1.2785430522     0.2557153322


