48

 C     3.7130985307     -0.0292249166     1.2932590713
C     3.9318438275     -0.4458994765     -0.0071415498
C     3.2238135094     -1.6973783391     -0.2737786358
C     2.7435829384     -0.9579474824     1.8716132216
C     2.4849923739     -2.0299685266     0.9005913575
C     1.6467067015     -0.1994979872     2.2835823424
C     3.1507123108     1.3054954381     1.2723983105
C     1.9099231917     1.2403871341     1.9445105571
C     3.4894947357     0.5714695326     -0.9373721089
C     3.1144035565     1.7303650291     -0.1313356451
C     2.4842998409     -1.4705675581     -1.4714910657
C     2.5492109112     -0.0259754955     -1.8169349698
C     1.2920011158     -2.1345001002     -1.641012432
C     1.1754418032     -2.5714171175     0.7882903201
C     0.7639145114     -2.9173799749     -0.5507518779
C     0.3031466859     -0.7146932947     2.2560199885
C     0.1098737976     -2.0540988397     1.6699282125
C     -0.7939472356     0.2396414411     2.3329128036
C     0.8194032638     2.0884203651     1.5885780176
C     -0.5490726186     1.681928682     1.9490938824
C     2.0232978564     2.4406182763     -0.5495605767
C     1.0336563246     2.9035433164     0.4152427898
C     1.3327648149     0.6590676789     -2.2122762235
C     1.2485362678     2.0182867016     -1.7479074103
C     0.12724507     -1.5069665352     -2.307373855
C     0.0732736946     -0.0656971079     -2.4445190692
C     -0.6079405457     -3.1394498115     -0.8570364414
C     -1.0058293959     -2.2392467783     -1.9660902375
C     -1.2312958451     -2.4800889399     1.4100505398
C     -1.5717122743     -3.0817056545     0.1053461036
C     -2.1192072942     -0.2875878459     2.18801257
C     -2.296077013     -1.6324610656     1.741254747
C     -3.1464365563     0.497885518     1.5314426707
C     -1.6232520544     2.4031823726     1.3458196089
C     -2.8880955144     1.7611913894     1.0962088489
C     -0.0908990778     3.3044291081     -0.3409439791
C     0.0045158659     2.6324591628     -1.6804687142
C     -1.3560226004     3.157595844     0.1252513779
C     -1.2453614758     0.5697630651     -2.2408715328
C     -3.1161526767     1.7524725965     -0.383352992
C     -1.2255615444     1.9754503918     -1.9325604109
C     -2.1682717864     2.5297105941     -0.9582103224
C     -2.2700202118     -1.6540814488     -1.6356870804
C     -2.7283657932     -2.3536577527     -0.4460521339
C     -3.2656481425     -1.6197888155     0.6000144634
C     -3.6770457651     -0.3099771427     0.3958320785
C     -2.4293230015     -0.2292746619     -1.7647625273
C     -3.3436090775     0.3851700318     -0.8077600922


