48

 C     -4.2980623975     -0.6732954284     -0.0000010831
C     -4.2980614611     0.6732968954     -0.0000002477
C     -3.559249929     1.151900837     -1.2093404044
C     -3.5592493294     -1.1518969682     -1.2093414271
C     -2.9409988913     0.0000009836     -1.8683299459
C     -2.7308322084     -2.1482777019     -0.7641692464
C     -3.5592501857     -1.1518991384     1.2093394824
C     -2.7308323123     -2.1482765044     0.7641659269
C     -3.5592477512     1.1518980237     1.2093403355
C     -2.9409987219     0.0000004028     1.8683294807
C     -2.7308310367     2.1482773188     -0.7641661231
C     -2.7308310402     2.1482792324     0.7641690231
C     -1.3861765112     2.2567211568     -1.1790652543
C     -1.5198899     0.0000004672     -2.1652572527
C     -0.7375282132     1.2361442705     -1.95577371
C     -1.3861788529     -2.256721759     -1.1790669781
C     -0.7375294294     -1.2361424649     -1.955774226
C     -1.3861774575     -2.2567204591     1.1790651531
C     -0.6698854138     -2.7108487947     -0.0000002047
C     -1.5198896768     0.0000003416     2.1652569083
C     -0.7375285476     -1.2361440174     1.9557738503
C     -1.386177627     2.2567223042     1.1790668112
C     -0.6698839676     2.7108490631     0.0000001542
C     -0.7375287886     1.2361429377     1.9557743573
C     0.6698851282     2.7108486403     0.0000015999
C     0.7375293452     1.2361439176     -1.9557734195
C     1.3861784523     2.2567222245     -1.1790650426
C     0.7375282478     -1.2361430478     -1.9557746683
C     1.519889849     0.000000835     -2.1652567299
C     0.6698839354     -2.7108488572     -0.0000013615
C     1.3861765857     -2.2567206365     -1.179066835
C     0.7375288914     -1.2361442426     1.9557737729
C     1.3861776321     -2.2567229565     1.1790655384
C     0.7375289438     1.2361425748     1.9557745097
C     1.386177703     2.2567200649     1.1790670808
C     1.5198901085     -0.0000014543     2.1652574327
C     2.7308320085     2.1482781668     -0.7641670432
C     2.7308319447     2.1482758057     0.7641678907
C     2.9409988685     0.0000002696     -1.8683292778
C     3.5592486802     1.1518976286     -1.209339305
C     2.730831312     -2.1482772667     -0.7641675124
C     2.7308312421     -2.1482788535     0.7641674873
C     3.5592496891     -1.1518995423     -1.2093403102
C     2.9409990093     -0.0000013608     1.868330026
C     3.5592504675     1.1518983898     1.2093415097
C     4.2980620092     0.6732952427     0.0000009635
C     3.5592493044     -1.1518994988     1.2093406301
C     4.2980622924     -0.6732970415     0.0000006846


