48

 C     3.5245359156     -0.7122020515     -0.1697163229
C     3.0214933257     -0.8498286451     -1.4570295666
C     2.6480596779     0.4658761052     -1.9741206216
C     3.5245367563     0.7121989068     0.1697170539
C     2.9357782149     1.4497642415     -0.9438675293
C     3.0214940693     0.8498260088     1.4570303285
C     2.9357763367     -1.4497667326     0.9438679413
C     2.6480587471     -0.4658784388     1.9741210213
C     1.9879614474     -2.4211291441     0.667189588
C     1.9765439578     -1.7863827639     -1.7606116052
C     1.5781131797     -2.685143347     -0.7366787827
C     1.3832899321     0.3551270672     -2.5571808111
C     0.9624802935     -1.0752009354     -2.4931481081
C     0.4136024777     1.4146371388     -2.3897969237
C     1.9879642261     2.4211281093     -0.6671893973
C     0.773132885     2.5047059526     -1.4945640966
C     1.9765454006     1.7863812654     1.7606124228
C     1.5781157605     2.6851428266     0.7366794472
C     1.3832891462     -0.3551283855     2.557181116
C     0.9624807635     1.0752000181     2.4931484701
C     0.7731303658     -2.5047060938     1.4945638735
C     0.4136009235     -1.4146376173     2.3897969808
C     0.2365950977     -3.0859245039     -0.699834127
C     -0.2365975297     -3.0859238492     0.6998364114
C     -0.4136020446     -1.4146389146     -2.3897958019
C     -0.7731323248     -2.5047065084     -1.4945619836
C     -0.9624799634     1.0751990002     -2.4931490108
C     -1.3832894355     -0.355129088     -2.5571806559
C     -1.9765440644     1.7863815416     -1.7606135148
C     -0.2365950985     3.0859252485     -0.6998366324
C     0.2365974122     3.0859255706     0.6998346319
C     -1.5781137643     2.6851435237     -0.7366811817
C     -0.4136014732     1.414639158     2.389796145
C     -0.7731310489     2.5047076552     1.494562542
C     -1.9879624737     2.4211301468     0.6671878617
C     -0.962481212     -1.0751985102     2.4931490775
C     -1.3832897707     0.3551299109     2.5571807923
C     -1.5781153218     -2.6851416773     0.7366807957
C     -1.9879633645     -2.421128086     -0.6671877702
C     -1.9765454519     -1.7863800766     1.7606130356
C     -2.6480591171     -0.4658777718     -1.9741205528
C     -3.02149345     0.849827303     -1.4570307839
C     -2.9357775258     -1.4497651478     -0.9438668176
C     -2.9357772536     1.4497671757     0.9438666828
C     -2.6480595084     0.465879517     1.9741205233
C     -3.0214941718     -0.8498253566     1.4570303526
C     -3.524536355     0.7122015043     -0.1697174379
C     -3.5245365891     -0.7121992503     0.1697169403


