48

 C     -3.4908574102     1.5382446163     0.0157410085
C     -2.4971886859     2.529499827     0.027068414
C     -1.7285342802     2.4061586422     1.2558535583
C     -3.2458598426     0.6725552561     1.1444063152
C     -2.1254253942     1.169761724     1.9023239977
C     -3.2821585493     -0.6940086999     0.733010208
C     -3.2433629535     0.6967639661     -1.1312189108
C     -3.2798591286     -0.6772412224     -0.7496444208
C     -1.7255998225     2.4308036051     -1.2030743849
C     -2.1214401883     1.2102927452     -1.8768668647
C     -0.3830474941     2.8303756277     -1.1813126843
C     -0.3862360825     2.8035789141     1.2427029738
C     0.1911281891     3.3073471101     0.0354241568
C     0.6379531656     2.0217715951     1.9365735017
C     -1.1219189143     0.2682297264     2.4116927111
C     0.3037859548     0.7350598709     2.4728325498
C     -2.4569120583     -1.607427381     1.4047160643
C     -1.3711775912     -1.1239641602     2.255945033
C     -1.9648771479     -2.7376503231     0.6619196585
C     -2.4529399195     -1.575591745     -1.4410278024
C     -1.9617240014     -2.7192165797     -0.7227260673
C     -1.1168991192     0.320180794     -2.4057692962
C     -1.3661059195     -1.0739121288     -2.2814151215
C     0.6425268959     2.0639562798     -1.8924143345
C     0.3096235317     0.7893614516     -2.4558191571
C     1.5727703567     2.8901801459     0.0323463476
C     1.9121360413     2.2556180855     1.2650343731
C     1.9146125771     2.2826414921     -1.213228164
C     2.91186515     1.2543620528     1.2404576161
C     1.3757029743     -0.2338055642     2.4974071092
C     2.6541693695     0.0501937272     1.9927301085
C     -0.2411830124     -2.0599806428     2.0829163882
C     -0.5797693462     -2.9952401517     1.0805874363
C     1.0826738577     -1.6447427778     2.1552802093
C     -0.5754066619     -2.9729775196     -1.1498363276
C     -0.236273428     -2.0152533838     -2.1292283756
C     0.2895747371     -3.2332499922     -0.0370787314
C     1.3810616599     -0.1793875389     -2.5007522866
C     1.0875708518     -1.5973905575     -2.1908398705
C     2.9152087941     1.2811269578     -1.2088275621
C     3.5435926696     0.8928619386     0.0119045416
C     2.6588688696     0.093220631     -1.9877747346
C     3.0833913441     -1.0896910667     1.191767506
C     2.0718138622     -2.1064624736     1.2089892941
C     1.6278309984     -2.7201687789     -0.0294765996
C     2.0748419801     -2.0792732798     -1.2533152456
C     3.6233738698     -0.5931379776     -0.0048261819
C     3.0886802513     -1.0643728375     -1.2131559569


