48

 C     -3.3266833089     -1.5725374745     0.6088208451
C     -3.3356318885     -0.9197677134     -0.6983159198
C     -2.3733485791     -1.5413881148     -1.5543751006
C     -2.3023711184     -2.4970113151     0.6144581441
C     -1.7833738622     -2.6242695522     -0.7469897423
C     -1.3656111904     -2.1669943801     1.6874458908
C     -3.0300314651     -0.552438723     1.5947198359
C     -1.8251504582     -0.9050664505     2.2779770157
C     -3.3414421137     0.4823098404     -0.5030920442
C     -3.1468827046     0.7207801599     0.9780855021
C     -2.6278653844     1.2850307928     -1.4119915455
C     -1.5008921078     -0.7149624264     -2.3678791349
C     -1.6763070225     0.6957372455     -2.3175464557
C     -0.1585284516     -1.1985504224     -2.615443318
C     -0.4585261586     -2.9513884537     -0.9041235427
C     0.2696590796     -2.382409411     -2.0115560251
C     0.00818226     -2.4313402424     1.5261956971
C     0.4677592305     -2.9575106647     0.2442984903
C     0.9408325218     -1.5807866803     2.2490102618
C     -0.8603851122     0.1185172968     2.6117230598
C     0.4995634524     -0.2467523721     2.7020837999
C     -2.3071906393     1.7676360745     1.398085594
C     -1.141504198     1.4822303896     2.1978798131
C     -2.0438635716     2.5167264599     -0.9319057297
C     -1.8998680793     2.7565226759     0.4278132221
C     -0.4964567157     1.6020901861     -2.3501161606
C     -0.7625860911     2.735824281     -1.5866150958
C     1.0266839932     -0.2920369722     -2.6622683601
C     0.8723990378     1.0824865675     -2.4308687229
C     1.6548759808     -2.2476622415     -1.6217276467
C     1.7803925545     -2.6316980304     -0.2405782576
C     2.1611779321     -1.0175288249     -2.0876081565
C     2.2814485229     -1.4859361961     1.8805692911
C     2.7196072403     -1.9231478759     0.5783266394
C     1.5969690695     0.6882165532     2.4605118463
C     2.7160787509     -0.0959672188     2.0645708108
C     -0.0482913423     2.3662042086     1.7792485354
C     -0.5262886452     3.1441077057     0.694808144
C     0.1876874538     3.1757402209     -0.5552311824
C     1.3264350567     1.9456480922     1.8164576713
C     1.8989904441     1.783155477     -1.6536384431
C     1.4755770647     2.7060810484     -0.5828472505
C     2.1480785141     2.2936802844     0.6634423001
C     3.1268058511     -0.3369654902     -1.2871890533
C     3.4788100208     -0.8687628493     -0.0029005291
C     3.4962255413     0.264351098     0.958319709
C     3.0008250707     1.0830886743     -1.1581231016
C     3.2040145649     1.4467177631     0.2680793993


