48

 C     -3.4051355306     -0.7629639597     -0.3156420944
C     -3.4569996307     0.570525658     -0.0420084716
C     -2.9633184424     1.3071647548     -1.2411761768
C     -2.8765601049     -0.9298592652     -1.7001772838
C     -2.385165117     0.3472548051     -2.1444679831
C     -2.0480560861     -2.0243276513     -1.6601041027
C     -2.7077240932     -1.6862692574     0.5651812339
C     -2.025999906     -2.5859283119     -0.2994793922
C     -2.0573980463     -1.2028165046     1.7631079276
C     -2.8168896523     1.1223396864     1.1413247732
C     -2.1140392629     0.2566746421     2.0625518555
C     -2.2182978054     2.3559566897     -0.7619334639
C     -2.2172007188     2.3374925528     0.7106706847
C     -0.8961078707     2.6209646289     -1.2305694297
C     -1.0127471101     0.4921484681     -2.5908995274
C     -0.3064634078     1.7417060275     -2.223336777
C     -0.7174209859     -1.9846136993     -2.1751549615
C     -0.2100271719     -0.7448106651     -2.7334853969
C     -0.7114463524     -3.0367796912     -0.058093461
C     0.0920039729     -2.7666277769     -1.2643857849
C     -0.867070041     -1.9289899546     2.1437268947
C     -0.1503094126     -2.7849840834     1.1920765236
C     0.1428275974     -1.322000473     2.9377538262
C     -0.9754156137     0.8613902214     2.7159211445
C     0.0892163865     0.0671719264     3.2224185789
C     -0.9363187157     2.7533249955     1.1295034676
C     -0.1336506167     3.0390774471     -0.0733400405
C     -0.3392480738     2.0722324698     2.1887996972
C     1.2529668448     2.8502653461     -0.0221879801
C     1.1313146515     1.7687908515     -2.2566806846
C     1.8802857975     2.3713596691     -1.1779380779
C     1.2252618898     -0.6498423339     -2.7531328709
C     1.8647563345     0.6045740373     -2.594806407
C     1.4609137809     -2.5106850266     -1.1220013046
C     2.0336325914     -1.5705879631     -1.9870674619
C     1.2917660046     -2.5058251634     1.3438242286
C     1.4610980577     -1.6332305027     2.4529755669
C     2.0720959061     -2.3176999106     0.2058612334
C     1.3725783803     0.64074281     2.9195794744
C     1.1222951924     1.8641707613     2.2403374746
C     1.8967017586     2.1970624028     1.1322688114
C     2.1755744243     -0.3894325895     2.3078749033
C     2.9990461111     1.5057860969     -0.789263456
C     3.0697111002     0.4719590279     -1.7198735181
C     3.0898999504     -0.8472342615     -1.272429042
C     2.9939666472     -1.1770893147     0.1135866648
C     2.8998064414     1.256159638     0.6128840621
C     2.9312879477     -0.1136972548     1.107410123


