48

 C     -3.9082122301     0.1290759616     -0.679916523
C     -3.908213039     -0.1290826289     0.6799182013
C     -3.2480641768     -1.3964200209     0.9295146588
C     -3.2157622453     -0.9498569351     -1.3723371037
C     -2.9422847225     -1.9735944427     -0.3751783224
C     -2.1240724704     -0.3558819485     -2.0468602239
C     -3.2480655153     1.3964144846     -0.9295133272
C     -2.1673928206     1.1157223561     -1.7969766005
C     -3.2157645909     0.9498519443     1.3723384865
C     -2.9422875666     1.9735894164     0.3751782364
C     -2.167391085     -1.1157255986     1.7969759683
C     -2.1240731305     0.3558789517     2.0468597037
C     -0.9448150946     -1.8517168778     1.7327496214
C     -1.7527829242     -2.6430925     -0.4814979576
C     -0.921415179     -2.8564965944     0.6968233739
C     -0.845414555     -1.0188419499     -2.1649136611
C     -0.8056439055     -2.3301831168     -1.5699271287
C     0.4048638596     -0.2565440754     -2.2785279573
C     -0.9448184403     1.8517154185     -1.7327501558
C     0.3280675491     1.2289728006     -2.1633953703
C     -1.7527867843     2.6430897827     0.4814977501
C     -0.9214194581     2.8564933519     -0.6968226466
C     -0.8454157356     1.0188409453     2.164913536
C     -0.8056470045     2.3301829232     1.5699280119
C     0.3280690288     -1.2289725334     2.1633946084
C     0.4048629954     0.2565455115     2.2785274355
C     1.5305392012     -1.9349992401     1.8510994616
C     0.3271364336     -3.3069910103     0.2133539361
C     0.4250344194     -2.9120584317     -1.2339357189
C     1.4895663571     -2.986536657     0.8319567022
C     1.6848965145     -0.9400480392     -2.0015868316
C     1.6476101929     -2.287661687     -1.4490209573
C     2.447951682     -2.5883779178     -0.2266294633
C     2.851412978     -0.1531630128     -1.6376326736
C     1.5305363388     1.9350018978     -1.8511002909
C     2.7539181167     1.2382138467     -1.6169366255
C     0.3271320761     3.3069898545     -0.2133528465
C     0.4250300587     2.912060342     1.2339371246
C     1.4895623725     2.9865395679     -0.8319563112
C     1.6848948077     0.9400511353     2.0015858224
C     3.314564636     1.6946788307     -0.3016709666
C     1.6476067842     2.2876641141     1.449021038
C     2.4479484947     2.5883829777     0.2266290441
C     2.7539208623     -1.2382092041     1.6169361264
C     3.3145677726     -1.6946735181     0.3016704594
C     3.6703181393     -0.5423726593     -0.4430089564
C     2.8514130153     0.1531672195     1.6376313638
C     3.6703179874     0.5423789657     0.4430079492


