48

 C     3.7054773143     -1.5373356638     -0.1772557711
C     3.7578632881     -0.5670987282     -1.1368574154
C     3.6857090638     0.7773486039     -0.5393216097
C     3.4480586065     -0.8364571782     1.0980578821
C     3.5217614418     0.6026710322     0.8861808023
C     2.279089397     -1.3755579102     1.6484884163
C     2.5422778366     -2.3766432656     -0.4690635833
C     1.7419685855     -2.3888924147     0.6739927126
C     2.6514469404     -0.7342795056     -2.0833664511
C     1.8986393311     -1.8965115939     -1.6889445493
C     2.6912109495     1.4740803278     -1.2639911966
C     2.0024385649     0.5110783042     -2.1865683305
C     1.8933912897     2.4223405342     -0.5957664763
C     2.5745416196     1.421217506     1.5527626409
C     1.9771920308     2.4995963338     0.8175363089
C     1.3196678771     -0.5431546357     2.347732651
C     1.5129230872     0.8569879401     2.3546657418
C     -0.0185669688     -1.054911122     2.455561563
C     0.3408787361     -2.6169306187     0.5713677699
C     -0.4382725728     -2.1962466656     1.712028631
C     0.4864221958     -1.868870013     -1.7778794886
C     -0.285874678     -2.5620272187     -0.7323901229
C     0.5888882358     0.571876774     -2.3740881958
C     -0.1408914207     -0.6930722328     -2.3878273533
C     0.4999276009     2.6315203794     -0.9888255568
C     -0.1368374969     1.7892889001     -1.9517025919
C     0.6472792605     2.7578652215     1.315352605
C     0.3061190507     1.732520298     2.2088073986
C     -0.2359707939     2.9874866978     0.2080357313
C     -1.1992193289     -0.1823056524     2.5974730213
C     -1.0511867396     1.2283469668     2.272326804
C     -1.8678083313     -2.1580852062     1.6352271291
C     -2.3442300348     -0.8844189596     2.204048336
C     -1.7221754678     -2.4848268502     -0.7886214344
C     -2.5087742833     -2.3673394101     0.4422306978
C     -1.5766104552     -0.6480930732     -2.4150672047
C     -2.3413913376     -1.6448205723     -1.7148228028
C     -1.5747698483     1.7693483892     -1.9342568186
C     -2.2755705938     0.5806406194     -2.3052284498
C     -1.5950099254     2.6831010542     0.3460057982
C     -2.0477092206     1.8128784737     1.4394221876
C     -2.2943088889     2.2983050041     -0.8112627999
C     -3.3233302126     -0.3305138153     1.3056727096
C     -3.5488293529     -1.3283733427     0.2645624349
C     -3.5073868283     -0.9559843467     -1.0747586012
C     -3.4635428045     0.4008285408     -1.4540502274
C     -3.2036287377     1.0399208129     0.9389039823
C     -3.3712749811     1.3835012813     -0.4445249242


