48

 C     3.67338719     -1.4087055955     -0.3666962966
C     3.6299206808     -0.1009739748     -1.0613769028
C     3.7267822233     0.9074729064     -0.0946355078
C     3.3657794822     -1.1235564948     1.033540915
C     3.4437033059     0.2483867523     1.2302387652
C     2.1311047919     -1.799243432     1.402623229
C     2.6017949943     -2.1347555685     -0.8409558281
C     1.718255452     -2.5520265626     0.2495541763
C     2.5424503315     -0.0765689787     -2.0049880375
C     1.9671799028     -1.4237356682     -1.9614918346
C     1.6426769323     1.0517255039     -2.0853502462
C     2.8862846902     2.0133451183     -0.1751816512
C     1.893142985     2.1573848307     -1.1846639607
C     2.4120743009     0.9942815683     1.9014308629
C     2.2109293389     2.1734033927     1.1250118821
C     1.1355107793     -1.1439588943     2.2222348245
C     1.2529811871     0.3220862246     2.4531843349
C     -0.161130909     -1.6986403676     2.1684588608
C     0.3527080197     -2.8062089862     -0.0154886637
C     -0.5445635705     -2.6322511109     1.0952757593
C     0.6327931657     -1.6354284924     -2.1872839961
C     -0.1705275215     -2.5055411318     -1.3266585963
C     0.2402386507     0.803568332     -2.4937171699
C     -0.2256705967     -0.5437228456     -2.6276509703
C     -0.780541465     1.7702758894     -2.1460682652
C     0.7511479645     2.8224099693     -0.5401293251
C     0.9455640433     2.7393006135     0.9205775625
C     -0.5140838709     2.7119323261     -1.0356544966
C     0.0414460546     1.0739094594     2.5052437207
C     -0.1172972158     2.2865702032     1.7133021856
C     -1.3566010196     -0.9430702504     2.5152977435
C     -1.2667054907     0.4517709293     2.5731361552
C     -1.9244665199     -2.5345434474     0.8783362186
C     -2.4684870925     -1.532325224     1.8096194769
C     -1.5395039619     -2.1300810297     -1.4922533866
C     -1.5872244922     -0.927625766     -2.3546203148
C     -2.4616720143     -2.2704259519     -0.4216747318
C     -2.133208354     1.412081933     -2.0788814803
C     -2.5697282635     0.0534062502     -2.1481247221
C     -1.672875887     2.675010949     -0.1363005265
C     -1.4764217699     2.3586652353     1.2253450085
C     -2.2438567304     1.2821296259     1.8431312863
C     -2.7162661292     2.0046050346     -0.847588818
C     -3.4121243508     -0.7662056978     1.1616827748
C     -3.477964536     -1.2460763638     -0.2447749385
C     -3.5306414341     -0.1426932145     -1.0682492673
C     -3.3073701524     0.6818231527     1.1453473933
C     -3.5389241191     1.0828188492     -0.2321122013


