48

 C     -3.5576320636     -0.7630723247     0.2108322781
C     -2.8718956987     -1.7455471067     0.8967163954
C     -2.1087143669     -2.5470563792     -0.0675011231
C     -3.1954235825     -0.9130065094     -1.2381801026
C     -2.1805179209     -1.9246176555     -1.3584065372
C     -3.006520045     0.3293035308     -1.7683273202
C     -3.438225811     0.6202831418     0.5646838523
C     -3.2897839961     1.3326090997     -0.6940131683
C     -2.5775167635     0.9682876902     1.6442956936
C     -1.999367103     -1.4372286487     2.0025944575
C     -1.8724837057     -0.085215085     2.3844725655
C     -0.8940172603     -2.9211230128     0.5335915682
C     -0.7986369563     -2.2489919549     1.8446202604
C     0.235825684     -3.0067313574     -0.2777534627
C     -0.9541137831     -1.6345883589     -2.054819111
C     0.1757194051     -2.4160173811     -1.6372673454
C     -1.7618865837     0.6937184515     -2.4246771313
C     -0.6902876571     -0.2598541165     -2.5545930065
C     -2.3702070277     2.3315605674     -0.8292754151
C     -1.4662010869     2.0058343271     -1.9643895452
C     -1.6587705898     2.091547237     1.5088218767
C     -1.5478456531     2.7719898974     0.2680116891
C     -0.5644165877     0.4159568448     2.7595509516
C     -0.4456627277     1.7792558986     2.2510019492
C     0.4456658601     -1.779283575     2.250979369
C     0.5644204649     -0.415990812     2.7595449805
C     1.547845953     -2.7719931873     0.2679753257
C     1.6587727062     -2.0915657659     1.5087936949
C     1.4661981922     -2.0058099866     -1.9644162965
C     2.3702057563     -2.3315503476     -0.8293074935
C     0.6902839743     0.2598856939     -2.5545908479
C     1.7618830105     -0.6936885712     -2.4246880726
C     -0.1757218336     2.416037624     -1.6372374384
C     -0.2358261591     3.0067348787     -0.2777160132
C     0.9541107928     1.6346137615     -2.0548004476
C     0.7986395426     2.2489692533     1.8446468054
C     0.8940179387     2.9211164556     0.5336263022
C     1.8724870787     0.0851857264     2.3844709202
C     2.5775190748     -0.9683079628     1.6442800867
C     1.9993699662     1.4372039979     2.0026093524
C     3.2897830396     -1.3326006388     -0.6940342781
C     3.0065175652     -0.3292818065     -1.7683356771
C     3.4382266519     -0.6202901805     0.5646712936
C     2.1805159578     1.9246343566     -1.3583859456
C     2.10871416     2.547057009     -0.0674728208
C     2.8718969543     1.7455359574     0.8967337634
C     3.1954218171     0.9130216797     -1.238173431
C     3.5576324167     0.7630696447     0.2108365993


