48

 C     -3.7464952768     -1.1442441302     0.4245549876
C     -3.6118995166     -0.5726697418     -0.9461618269
C     -3.6342345989     0.8173421484     -0.8285821108
C     -3.4153858033     -0.0552476042     1.3436780384
C     -3.4397870607     1.1376640584     0.644067503
C     -2.2178811334     -0.4191969032     2.0991882592
C     -2.7739461623     -2.096761292     0.5732754949
C     -1.8727975375     -1.7529463059     1.6983908194
C     -2.5174751283     -1.2062948888     -1.6229781156
C     -2.1227219434     -2.3020434372     -0.7308118585
C     -1.4660642334     -0.4336846696     -2.2713146301
C     -2.694621832     1.5732332033     -1.5161274257
C     -1.6157212507     0.9928769424     -2.2601299396
C     -2.385013381     2.0965531669     0.7607881755
C     -2.0883853385     2.519296882     -0.5733429575
C     -1.181774221     0.5426010747     2.3494332442
C     -1.278983411     1.8729367091     1.6890469336
C     0.1240514897     0.0120569296     2.5879618892
C     -0.5357689384     -2.2070698388     1.6817612087
C     0.4516750186     -1.3710351015     2.2877358709
C     -0.85336349     -2.7684425671     -0.7473625599
C     -0.1048572517     -2.998956551     0.5233444595
C     -0.0884510766     -0.9815685169     -2.3181058346
C     0.1011845079     -2.2753088573     -1.731455605
C     1.1006901571     -0.0942971968     -2.3822380889
C     -0.4358937208     1.830623148     -2.0330588631
C     -0.7856267008     2.7873279208     -0.9809170202
C     0.8921647751     1.362967104     -2.1446948699
C     -0.0718817227     2.5429660328     1.3923517882
C     0.1551233169     3.0731793633     0.0274022933
C     1.3331096411     0.796762677     2.421285057
C     1.2223664164     2.0799000965     1.8646379011
C     1.8567503231     -1.4450919424     1.9340162295
C     2.4250952168     -0.0985159478     2.0318432839
C     1.2294984722     -3.0434196094     0.1940242249
C     1.3680065991     -2.6969319113     -1.2572774186
C     2.2622237009     -2.3237676015     0.9026723718
C     2.3884451275     -0.6349479061     -2.0343736122
C     2.4867244018     -1.9362028025     -1.4349077386
C     3.1709581698     -1.8165823834     -0.1068435318
C     3.3838255754     0.3284739255     1.086223848
C     3.3327987681     0.1731053439     -1.2818683166
C     3.6931050575     -0.555457952     -0.0222328508
C     1.8980075862     2.1275632645     -1.4080783528
C     1.4974924961     2.9508141723     -0.303411623
C     2.2217311392     2.4826555312     0.8929685558
C     3.1098136126     1.4841460637     -0.9808114894
C     3.2341901611     1.6456399006     0.5064352023


