48

 C     -2.7693849783     2.4579889771     0.4457354284
C     -3.3462365211     1.2912002208     -0.135615014
C     -3.269395402     0.2127938315     0.8019823417
C     -2.0312609347     2.0137486433     1.6212249485
C     -2.313953765     0.6261047308     1.8609669004
C     -0.7114868556     2.5247484275     1.621767503
C     -1.7869327271     2.9490063094     -0.4245396909
C     -0.5921294677     3.2549252181     0.3357043507
C     -2.7300581338     1.0819598406     -1.4303134516
C     -1.6821561049     2.0721769128     -1.5795649302
C     -2.5006205332     -0.2361889741     -1.8646106315
C     -3.2527288903     -1.0997804019     0.3153470474
C     -3.0017377942     -1.3145889552     -1.0869351524
C     -2.4392723692     -2.0518499385     1.0128174138
C     -1.2741954413     -0.2484714278     2.2748563535
C     -1.4409010236     -1.6527908978     1.9327175473
C     0.3840756779     1.71486124     2.0725724532
C     0.1057562634     0.2938752189     2.4403571414
C     1.6821598161     2.0721741897     1.579564453
C     0.5921352746     3.2549240465     -0.3357050614
C     1.7869379982     2.9490030897     0.4245390038
C     -0.3840726467     1.7148614686     -2.0725729017
C     0.7114913637     2.5247466848     -1.6217680539
C     -1.179590171     -0.6231283037     -2.3847275285
C     -0.1057558236     0.2938747781     -2.4403573705
C     -2.0863022162     -2.4403980309     -1.2054684913
C     -1.8409901569     -2.9845683624     0.0613825994
C     -0.9801874218     -2.0433899452     -2.036785171
C     -0.2839054672     -2.5129728952     1.7229731249
C     -0.5113735094     -3.2852227838     0.4795478648
C     1.1795889938     -0.6231298444     2.3847274479
C     0.9801838142     -2.0433911724     2.0367856002
C     2.7300599834     1.0819552034     1.4303132193
C     2.5006199764     -0.2361930507     1.8646106163
C     2.769389444     2.4579838134     -0.4457359907
C     2.0312645603     2.013744538     -1.6212253972
C     3.3462388499     1.2911941761     0.1356146684
C     1.2741949751     -0.2484743115     -2.2748563937
C     2.3139548384     0.626100021     -1.8609670465
C     3.2693957181     0.2127876558     -0.8019823516
C     0.2839010422     -2.5129738217     -1.7229725395
C     0.5113677112     -3.285223786     -0.4795470399
C     1.4408981029     -1.6527939592     -1.9327171224
C     2.086297938     -2.4404014962     1.2054691129
C     3.0017355773     -1.3145942207     1.0869355825
C     3.2527268288     -1.0997863825     -0.3153466719
C     1.8409848828     -2.9845716764     -0.0613818703
C     2.4392687244     -2.0518545979     -1.0128168499


