48

 C     -3.4538725635     -0.2684022625     0.7007598752
C     -3.0684683709     -1.5689005534     0.6359910896
C     -2.7874642529     -1.9063709424     -0.7959618595
C     -3.4539490197     0.2692246891     -0.7000873006
C     -2.7830124299     -0.6922321634     -1.5502770127
C     -3.0682205549     1.5696341622     -0.6353922279
C     -2.7825367867     0.6929039571     1.5508148554
C     -2.7868442707     1.9070245463     0.7965109128
C     -1.6004977876     0.2987322075     2.2934120141
C     -1.9758107612     -2.0562305715     1.4428896922
C     -1.2381804187     -1.1385747189     2.2795187349
C     -1.7053369663     -2.7533056908     -0.7869014311
C     -1.2618700942     -2.9546823456     0.5924948249
C     -0.5552473341     -2.5009171854     -1.5998164067
C     -1.6010376296     -0.2983531825     -2.2930966957
C     -0.5159244093     -1.3049521285     -2.4246019688
C     -1.9756105277     2.0566984794     -1.4425034891
C     -1.238366993     1.1388818811     -2.2792684063
C     -1.7045136457     2.7537117176     0.7872243645
C     -1.2612855633     2.9549963646     -0.5922296844
C     -0.5151318585     1.3050712554     2.4247060988
C     -0.5543257504     2.5010554012     1.599926922
C     0.8063645419     0.8749074007     2.7726380434
C     0.1492257171     -1.497566928     2.4848264842
C     1.0922272015     -0.5395617092     2.8601455179
C     0.1463363427     -3.0609107169     0.5696256576
C     0.60126861     -2.9014406996     -0.8251007318
C     0.860453583     -2.4392583209     1.5845490397
C     1.8535975071     -2.3382656895     -1.0750191773
C     0.8056053819     -0.8751033978     -2.7727920247
C     1.9629614073     -1.4596645995     -2.172842437
C     0.1490891448     1.4975313705     -2.4848514823
C     1.091786378     0.5393081383     -2.8603592104
C     0.1469524764     3.0608897831     -0.5696561042
C     0.6021265514     2.9013008682     0.8249914503
C     0.8607122848     2.4390515313     -1.5847081216
C     1.9637462108     1.4591986862     2.1724529279
C     1.854368727     2.3378184366     1.0746598817
C     2.3866646476     -0.8231707196     2.2457824444
C     2.2093358369     -1.9285341293     1.3524943237
C     2.6888306405     -1.8251020784     0.0351396578
C     2.8897055808     0.3881979679     1.7856879613
C     2.8892548141     -0.3888941102     -1.7862631509
C     2.386411225     0.8226007384     -2.2462542295
C     2.2095291542     1.9280019991     -1.352927691
C     2.6892597933     1.8244510347     -0.0356754451
C     3.2957350244     -0.5732312743     -0.4255400381
C     3.2959582064     0.5724375019     0.4248845523


