48

 C     -3.5151741564     -0.3113153294     0.6777058843
C     -3.0396901657     -1.5934674984     0.5402191632
C     -2.6702393886     -1.8199987365     -0.8775354521
C     -3.5151738616     0.3113173668     -0.6777063682
C     -2.889159532     -0.6071686262     -1.6084516936
C     -3.0396890287     1.5934691672     -0.5402195492
C     -2.8891594173     0.6071702948     1.608451279
C     -2.6702383638     1.8200001736     0.8775350529
C     -1.8374383993     0.1296774818     2.4253619866
C     -1.9766547973     -2.1040720049     1.359706446
C     -1.4204532966     -1.2580859113     2.3488487958
C     -1.4679329075     -2.5318228588     -0.9184916589
C     -1.0880315218     -2.8328117075     0.4838131046
C     -0.4447651169     -2.1743453477     -1.8836265373
C     -1.8374380641     -0.1296764136     -2.4253622164
C     -0.6412486006     -0.9442620888     -2.6200507846
C     -1.9766532598     2.1040730307     -1.359706579
C     -1.4204521429     1.2580867356     -2.3488488522
C     -1.4679315617     2.5318235141     0.9184914633
C     -1.0880297513     2.8328120869     -0.4838131223
C     -0.6412485156     0.9442624791     2.6200506961
C     -0.4447642041     2.1743455165     1.8836264532
C     0.0130501478     -1.3013089471     2.6096452531
C     0.4766989695     0.0611825978     2.8579902113
C     0.2593957177     -2.966081706     0.816938024
C     0.8366030859     -2.1880973901     1.9276911673
C     0.9048761142     -2.5480947349     -1.5791939019
C     1.2242282595     -2.9980614225     -0.2178340876
C     1.9906526689     -1.73297926     -1.968409633
C     0.4766994479     -0.0611827998     -2.8579900858
C     0.0130513487     1.3013089974     -2.609645104
C     1.7837485565     -0.4326498393     -2.4950456354
C     0.2593974824     2.9660813513     -0.8169377735
C     0.8366045942     2.1880968865     -1.9276908173
C     0.9048771572     2.5480940371     1.5791940115
C     1.224229742     2.998060402     0.2178343655
C     1.7837483043     0.4326489137     2.49504595
C     1.9906531168     1.732978072     1.9684098786
C     2.197243403     -1.8019278446     1.5216527645
C     2.4447277711     -2.3992689889     0.2275032188
C     2.9274540203     -1.6156399677     -0.839638565
C     2.6472104584     -0.5060611173     1.759617329
C     2.647211088     0.5060597365     -1.7596168234
C     2.1972445938     1.8019266368     -1.5216522474
C     2.4447289591     2.3992675004     -0.227502699
C     2.9274545766     1.6156383091     0.8396390651
C     3.284887741     -0.2626963806     -0.6674575196
C     3.284887729     0.2626946337     0.6674581431


