48

 C     -3.8660282031     -1.1830805505     0.4303635825
C     -3.8907242255     -0.6958519527     -0.8541321798
C     -3.6243869869     0.7368779383     -0.8349199259
C     -3.4977677052     -0.0633741725     1.3275044471
C     -3.4610011587     1.1583378583     0.5416373526
C     -2.3618567063     -0.4466445905     2.0560569008
C     -2.8298688312     -2.194490484     0.5195975168
C     -2.0046694307     -1.8348373094     1.6036283905
C     -2.81083994     -1.3373990073     -1.6148547587
C     -2.1861082797     -2.3288260953     -0.7848217662
C     -2.5921093018     1.0009982076     -1.777627449
C     -2.0245713676     -0.3211632794     -2.2134865126
C     -1.7110406583     2.0551157331     -1.5289960435
C     -2.4432725063     2.0860137339     0.8233783179
C     -1.7768235201     2.7278680776     -0.2778739939
C     -1.2769316022     0.4806526518     2.330495548
C     -1.4146896188     1.7961177654     1.8180752361
C     0.1002675555     -0.0595591623     2.5662323934
C     -0.6639884876     -2.1908538706     1.5616903232
C     0.3705275055     -1.4289005746     2.2473786903
C     -0.7770276654     -2.488150772     -0.8656766086
C     -0.0775978594     -2.7288286788     0.3676326251
C     -0.6228914196     -0.4817827205     -2.370353912
C     -0.0210844485     -1.7074801632     -1.8514551184
C     -0.2920546491     1.9427690579     -1.8995015912
C     0.238871405     0.7338840326     -2.4313900659
C     -0.4243621882     3.0277829312     0.0947661093
C     -0.2002777151     2.5290985123     1.4052971872
C     0.4955588348     2.6845969531     -0.9472153094
C     1.232643212     0.8239930174     2.4744818411
C     1.0699179271     2.0755198626     1.713593018
C     2.5187036752     0.3448717761     2.1810736822
C     1.6432993773     -1.8578566226     1.7270533864
C     1.3485112071     -2.5855707115     0.4879279174
C     2.7630731664     -0.9983781951     1.7604502235
C     1.4008009161     -1.7908141835     -1.8012335276
C     2.1141489669     -2.3566948983     -0.6553986424
C     1.6474997745     0.5924312403     -2.3795928275
C     2.2249522967     -0.7358100894     -2.3238879358
C     1.849009826     2.3293026931     -0.6299573886
C     2.1727398919     2.2078808066     0.7780516505
C     3.1434167999     1.2358938647     1.1793673103
C     2.495340444     1.4360977379     -1.5473583065
C     3.680899239     -0.9601918434     0.6403741132
C     3.3722891347     -1.6305550551     -0.5403148356
C     3.4696669414     -0.7000498498     -1.6644905105
C     3.8840911361     0.4843360397     0.2763331455
C     3.6157442424     0.6167043409     -1.1178996992


