48

 C     4.3049759584     0.234793924     -0.0999997734
C     4.22229334     -1.0522311833     -0.5668020162
C     3.6911487583     -1.8713662795     0.5250431969
C     3.7186842442     0.3356678378     1.2790154991
C     3.3126143193     -0.9543940186     1.6586026679
C     2.7771776814     1.3960385157     1.2691747022
C     3.5533071648     1.1412481203     -0.9446754696
C     2.8082481369     1.9973964704     -0.1024049436
C     3.2218456951     -1.0257946277     -1.6638483172
C     2.8104866744     0.3539935785     -1.9061939009
C     2.5154582355     -2.4296350777     0.0915355311
C     2.1939306612     -1.8888079268     -1.2744505695
C     1.9364378848     -1.1697342771     1.9958130126
C     1.4678085584     -2.2298632867     1.0933913167
C     1.4885581792     1.251941663     1.9009511688
C     1.0265893082     -0.092987969     2.2380919275
C     0.478844785     2.201559533     1.5195310835
C     1.6512966727     2.5758920125     -0.6049721031
C     0.6377897018     2.9482977012     0.3278055914
C     1.4270277427     0.6782197795     -2.1752877202
C     0.9517453703     1.9414688014     -1.7030579565
C     0.8228339725     -1.6303849972     -1.5726549129
C     0.4153441501     -0.3969475404     -2.1825120051
C     0.15692749     -2.314904054     0.7336460968
C     -0.1569762778     -2.3148354616     -0.7338723964
C     -0.4153516613     -0.3971476345     2.182473997
C     -0.8228672786     -1.6305191596     1.5724966389
C     -0.9517047927     1.9413248335     1.7032457279
C     -1.4270133672     0.6780405552     2.1753537031
C     -0.637728158     2.9483425039     -0.3275206781
C     -0.4787983481     2.2017154934     -1.519318292
C     -1.6512426848     2.5758684509     0.6052206992
C     -1.0265910868     -0.0927515546     -2.2380997508
C     -1.4885315977     1.2521556939     -1.9008298083
C     -1.4678552832     -2.2297227937     -1.0936059401
C     -1.9364635165     -1.1695018829     -1.995927307
C     -2.1939692312     -1.8888829315     1.2742673257
C     -2.515508384     -2.4295701788     -0.0917693561
C     -2.8104793552     0.3538687406     1.9062279654
C     -3.2218667857     -1.025886654     1.6637504049
C     -2.8082057845     1.9974438891     0.102597463
C     -2.7771477291     1.3962176816     -1.2690390944
C     -3.5532833495     1.1412314233     0.944785395
C     -3.3126354543     -0.9541645312     -1.6586944584
C     -3.6911890459     -1.8712387652     -0.5252236712
C     -4.222314804     -1.0521969666     0.5667011023
C     -3.7186775131     0.3358682009     -1.278982542
C     -4.3049711962     0.2348743487     0.1000227659


