48

 C     -3.8041876585     -0.5300910641     -0.5144334314
C     -3.2188767891     0.3293654881     -1.5427844019
C     -2.9326915871     1.5557021292     -0.9557379686
C     -3.5511273642     0.1387848168     0.777833798
C     -3.157891382     1.44506983     0.5233528784
C     -2.720530455     -0.6870694848     1.6229706794
C     -3.0327565538     -1.6737520788     -0.4910735228
C     -2.5170999807     -1.9142739967     0.8589828362
C     -2.1244475374     -0.3596234269     -2.1921940544
C     -2.0515140541     -1.6670885506     -1.5821064792
C     -0.9104728776     0.3487719916     -2.5432496629
C     -1.7236071438     2.2615095468     -1.1693500061
C     -0.7189336437     1.7475245723     -2.060641798
C     -2.0402127697     2.0324283489     1.1605946604
C     -1.3214372918     2.7918335434     0.1312359492
C     -1.6154261427     -0.1130982978     2.3561612565
C     -1.2857632854     1.3067775312     2.1535342288
C     -0.5258146493     -1.0157985643     2.6561205874
C     -1.3551703779     -2.6439493822     0.9945389344
C     -0.480123033     -2.2930885891     2.0603657499
C     -0.8198425307     -2.356478408     -1.437828948
C     -0.5131735363     -2.9874134119     -0.1763086498
C     0.2456877183     -0.4433725644     -2.7100666819
C     0.2873191449     -1.8390812175     -2.2142232622
C     1.5942663198     0.0958594072     -2.5978589047
C     0.6186242466     2.2303546626     -1.8603029141
C     1.7864441849     1.3884832312     -2.1059029403
C     -0.0224757683     3.2082781055     0.340540056
C     0.9160606163     3.0521681171     -0.7321022348
C     0.0883255443     1.736222072     2.3265057085
C     0.6385424895     2.7664274267     1.546224778
C     0.8745965861     -0.5615742764     2.7264678105
C     1.1758877621     0.7651218618     2.5757697105
C     0.8765872972     -2.5973279297     1.6488720695
C     0.84872105     -3.0497891092     0.2762489188
C     1.7362856005     -1.5748764109     2.0754000657
C     1.6080785642     -2.1408096993     -1.8702120134
C     2.4448084631     -0.9645201228     -2.1296524118
C     1.9280286822     -2.6650122162     -0.5668131754
C     2.8023121351     -1.1728885093     1.2184581464
C     3.2613716716     -0.7739216059     -1.0246215987
C     2.9531281688     -1.8203549546     -0.0318953133
C     2.7461911064     1.6109991111     -1.0099093691
C     2.194657035     2.645922972     -0.18346112
C     2.0172470744     2.4363737819     1.1924072364
C     2.3654814303     1.1910998888     1.8008568561
C     3.3435520516     0.5021566214     -0.3768427106
C     3.091367469     0.2580188138     1.0561316585


