48

 C     3.4338725963     -1.8279463209     -0.1290069629
C     3.5567663499     -0.8029317155     -1.0827757708
C     3.8814987159     0.3938511316     -0.3611549142
C     3.2537045585     -1.2015269209     1.2028761354
C     3.5788390653     0.1392450834     1.1046331817
C     1.9738333705     -1.5889521196     1.7307486089
C     2.2680716317     -2.5766079934     -0.3939121613
C     1.4856405481     -2.615539475     0.7946430072
C     2.3338043251     -0.8239205459     -1.9152134562
C     1.6047550672     -2.0245344246     -1.5670156985
C     1.5974710426     0.3777067274     -2.1843870626
C     3.2821348037     1.5617221992     -0.6967812875
C     2.1915375306     1.6184596828     -1.6837500462
C     2.6836499258     1.1472961061     1.5699794011
C     2.7482091908     2.1860485851     0.5538547615
C     1.0279656914     -0.6288079472     2.2163185831
C     1.3878318269     0.8028648356     2.1198693179
C     -0.4141315209     -1.0343329378     2.2519428459
C     0.1393817301     -2.8683296698     0.6608561802
C     -0.8189462972     -2.2771736896     1.5958288719
C     0.1984968568     -2.1235537766     -1.6808955886
C     -0.45341391     -2.8993899069     -0.6388790715
C     0.1164200031     0.3046983135     -2.326318689
C     -0.5618324429     -0.9960815369     -2.2318128251
C     -0.6895420015     1.4980366276     -2.0273958182
C     1.3310660771     2.6152064966     -1.1997299993
C     1.6620106324     2.9246560377     0.2238652685
C     -0.059160024     2.573010174     -1.3216217082
C     0.2876660915     1.7642774512     1.9293195557
C     0.4451176359     2.8148321441     0.9501266895
C     -0.6189280897     2.9832453524     -0.0198692397
C     -1.4285078428     -0.0638298275     2.3694729437
C     -1.0720235495     1.3588969847     2.1849934605
C     -2.786593792     -0.2544427753     1.8427161021
C     -2.087176134     -2.4244825878     1.0281977928
C     -1.8541093907     -2.7851963814     -0.4032194085
C     -3.0887074899     -1.4136335319     1.0833143035
C     -2.0088464565     -1.0400159762     -2.0910949
C     -2.642633554     -2.0010193725     -1.1830711893
C     -3.5889527133     -1.2603128346     -0.2849316991
C     -2.1112424663     1.3931733651     -1.7960239965
C     -2.7501169549     0.1446210749     -1.9334208338
C     -3.7525192687     -0.0088876232     -0.8212795599
C     -1.923775156     2.6959430871     0.3223982694
C     -2.163655853     2.0067586004     1.5771464371
C     -3.2093857922     1.0254015379     1.3290356598
C     -2.7260508637     2.0586493836     -0.6624637839
C     -3.6594927036     1.152848909     -0.0061137065


