48

 C     -3.9473955805     -0.5752737567     0.1433455283
C     -3.6968709669     0.8499107731     0.2933817282
C     -3.0447954366     1.0527550108     1.5093433361
C     -3.2096570737     -1.2501019439     1.2162016596
C     -2.7318952873     -0.2649393727     2.0993882872
C     -2.2804930534     -2.2029776449     0.6718784795
C     -3.2854606343     -0.9472853759     -1.0300897628
C     -2.4205950101     -2.0864890471     -0.7791300132
C     -3.0320615227     1.3505573581     -0.9018478476
C     -2.737441676     0.208939018     -1.7428893472
C     -2.0593618482     2.3654784547     -0.7615463559
C     -1.8678885975     1.8763328579     1.637719733
C     -1.4566740968     2.6616768399     0.5693067326
C     -1.3810326193     -0.244103655     2.5163406687
C     -0.8612444488     1.1126434422     2.377982418
C     -0.9676598789     -2.3699110105     1.2416433598
C     -0.5150865407     -1.3691091619     2.2342845219
C     0.0369877713     -2.9217829945     0.3725253203
C     -1.3119751735     -2.2684069828     -1.5836809534
C     -0.1907503896     -2.9273839012     -1.0369762961
C     -1.477848937     0.0975749716     -2.440920669
C     -0.8099820285     -1.170208026     -2.4587952929
C     -0.9931562034     2.4100372942     -1.6698330416
C     -0.6186756083     1.2622849129     -2.4742089877
C     -0.036939655     2.9218548466     0.3719658407
C     0.1906162152     2.9271832108     -1.0375665516
C     0.5153754424     1.3695414641     2.2339547555
C     0.9678204203     2.3701521894     1.2410608728
C     0.8615520254     -1.1121833086     2.378084469
C     1.3813581031     0.2445896944     2.5161145472
C     1.4567479469     -2.6615674128     0.5696324623
C     1.8681003753     -1.8760160911     1.6378395948
C     0.992940904     -2.4103598359     -1.6694959396
C     0.6183560506     -1.2627631689     -2.474045138
C     2.0592637481     -2.3656256008     -0.7613562829
C     0.8096643556     1.1697330345     -2.4591272286
C     1.3117704599     2.2681006021     -1.5842894702
C     1.4775336675     -0.0980466142     -2.4410935016
C     2.2805791099     2.2031062218     0.6711572555
C     2.4204938385     2.0863377818     -0.7798467093
C     2.7321673204     0.2653448195     2.0989841028
C     3.0449909066     -1.0524630776     1.5091524016
C     3.2098134261     1.2503363715     1.2155440953
C     3.0319451929     -1.3507312925     -0.9019791168
C     2.7372163454     -0.2092756485     -1.743203015
C     3.2853282417     0.9470865307     -1.0306984257
C     3.6969100404     -0.8498541534     0.2930674292
C     3.9474143596     0.5753013768     0.1427233465


