48

 C     3.8903956015     0.0002238505     -1.1475756592
C     3.1015745374     1.1402359127     -1.492054499
C     2.9663317029     1.9999215525     -0.3749169947
C     3.963587224     0.0000915505     0.3176071132
C     3.3688319459     1.1911694303     0.7910817269
C     3.3689356616     -1.1913320196     0.7909973212
C     3.1016819355     -1.139748094     -1.4920977184
C     2.9664243831     -1.999513514     -0.37499158
C     1.8721722043     0.7224157742     -2.1766822235
C     1.8721881909     -0.7219144753     -2.1766615658
C     0.6612013785     1.4393776395     -2.0085430095
C     1.7355668918     2.6059308595     -0.0932792436
C     0.6490005228     2.5252770095     -1.0134641844
C     2.289293936     1.2174184416     1.7358032773
C     1.410291091     2.2830981929     1.3189464781
C     2.2894414445     -1.2178881771     1.7357902639
C     1.6829372282     -0.0002950891     2.2317188555
C     1.7356201428     -2.605901041     -0.0934733942
C     1.4104825385     -2.2836436771     1.318816838
C     0.6612990429     -1.4389965371     -2.0086941855
C     0.6491711932     -2.5250438875     -1.0136191965
C     -0.5924101665     0.7233955434     -2.2938996917
C     -0.5923551225     -0.7230580563     -2.2938388202
C     -1.8442566078     1.4275767238     -1.989057558
C     -0.6277843723     2.9392506552     -0.4845324278
C     -1.8326354124     2.5221501749     -1.1122346427
C     0.1010289734     2.3601563031     1.7652343705
C     -0.8583530328     2.9718682686     0.9172081299
C     0.2226675216     -0.0003061573     2.5096370469
C     -0.5423385088     1.1992963245     2.3543583462
C     0.1011757189     -2.3605649915     1.7650026607
C     -0.5422705721     -1.1997912184     2.3543086488
C     -0.6276754227     -2.9392762673     -0.4848582682
C     -0.8581636082     -2.9718232702     0.9167068237
C     -1.84427791     -1.4273377966     -1.9891060306
C     -1.8325972105     -2.5219249311     -1.1123766763
C     -3.0526870306     0.6784180742     -1.6869354271
C     -3.0526715516     -0.6781787036     -1.6869397444
C     -2.8661400943     2.2917958298     -0.0456620354
C     -2.1583591368     2.3691803015     1.17369665
C     -1.9734556656     1.2177767109     1.9954948885
C     -3.5450208707     1.1360814952     -0.3510119977
C     -1.9735171047     -1.218151322     1.9953600496
C     -2.1584866041     -2.3693404995     1.1734353871
C     -2.866145655     -2.2918481604     -0.0458046316
C     -3.5451005043     -1.1359647112     -0.3510245833
C     -2.6895938067     -0.0001583369     1.6960741136
C     -3.5950070403     -0.0001056849     0.5360549994


