48

 C     4.2187400029     -0.0899182801     -0.5619446754
C     3.8390881185     1.2092111694     -0.6515699336
C     3.2729287293     1.6727610129     0.6310238975
C     3.9036716071     -0.570035357     0.8150306071
C     3.2741983921     0.5285925863     1.5508057011
C     3.1933780429     -1.7460205886     0.6618525234
C     3.4032128769     -0.8672605018     -1.5253775392
C     2.891481163     -1.932838587     -0.8024150355
C     2.8099909486     1.365467789     -1.6919313271
C     2.469046818     0.0442461689     -2.2024750392
C     2.0751474868     2.3108491815     0.3438490342
C     1.7913322959     2.122589785     -1.1410722867
C     0.9572145213     2.2116281138     1.2463484761
C     2.1051784651     0.2656780885     2.2829158179
C     0.9873861881     1.2072118202     2.253145151
C     1.9752984959     -2.0104755491     1.3688065457
C     1.4903602902     -1.0566334956     2.27814948
C     1.5357213679     -2.3077438166     -0.909795405
C     1.0087549711     -2.5660198363     0.4238132768
C     1.1016914793     -0.3096756521     -2.3564344613
C     0.68348049     -1.6303320919     -1.8553455469
C     0.4465458194     1.9379493399     -1.5599003522
C     0.0567611783     0.7354862232     -2.2656236753
C     -0.3150016977     2.5829506856     0.7299681231
C     -0.5291638173     2.6035159033     -0.7480865941
C     -1.5396059964     2.2234150654     1.3482722839
C     -0.2469703339     0.5092794937     2.5383294597
C     0.05440365     -0.8961338962     2.4313278533
C     -1.5326286844     1.0268439958     2.1811025086
C     -0.3719963778     -2.5387706438     0.6598752616
C     -0.8927924834     -1.7638311521     1.8067092188
C     -0.6777442188     -1.8981770565     -1.7021052553
C     -1.1841768535     -2.5631607756     -0.5266426317
C     -1.3733658027     0.3863220425     -2.3207493496
C     -1.7348497393     -1.0064224224     -2.1967209946
C     -1.867286573     2.4177684404     -0.9785427444
C     -2.5597055589     2.3404907615     0.3240652047
C     -2.3573932118     1.3345238027     -1.8023308062
C     -3.6018530002     1.4668313596     0.2015532733
C     -3.5836310296     0.8968043732     -1.1957313733
C     -2.5914455684     0.0686308544     2.0016268067
C     -2.2476624682     -1.3207615166     1.766784988
C     -3.7233547092     0.3629056988     1.1201342924
C     -2.5626489562     -2.2808973779     -0.4610236662
C     -2.9493099678     -1.4175787512     -1.5884360232
C     -3.8499691334     -0.4639498155     -1.0452404709
C     -3.1585252957     -1.8084808859     0.7305794665
C     -4.0939319211     -0.7868367058     0.3934229354


