48

 C     -3.7228500598     -0.9839103584     -0.966988891
C     -3.6532865472     -0.901319742     0.4738577497
C     -3.6790831598     0.448969682     0.8559894001
C     -3.3737985328     0.3713677761     -1.4426250073
C     -3.4830714121     1.2736649628     -0.3851221296
C     -2.1539662809     0.3282382812     -2.2199062446
C     -2.6408201225     -1.7804675034     -1.3373454478
C     -1.7690973891     -1.0784402734     -2.2634033171
C     -2.5567896304     -1.7397897966     0.9708875078
C     -1.9950278106     -2.3972060162     -0.1783921252
C     -1.6686331711     -1.2593967482     2.0148900358
C     -2.7996132588     0.9432003393     1.8269018774
C     -1.7743851523     0.1198199174     2.4468239373
C     -2.4423967801     2.207890753     -0.126408574
C     -2.1605349563     2.1081028603     1.3000483769
C     -1.1301061641     1.3187044734     -2.0690308263
C     -1.3213758034     2.3279577293     -1.0107671379
C     0.2506029645     0.9296718286     -2.4465710861
C     -0.4441303702     -1.4532808053     -2.335680998
C     0.5706093012     -0.4619723284     -2.6031081626
C     -0.6204818156     -2.764159038     -0.252506628
C     0.1245368722     -2.449009617     -1.4423626831
C     -0.3675222743     -1.811999396     2.050239295
C     0.1156810844     -2.7160848312     0.9843953204
C     0.777393259     -1.0716036446     2.515229905
C     -0.5770877716     0.9142508942     2.5618305379
C     -0.8493008421     2.1724271425     1.8319715903
C     0.7353424253     0.3632968063     2.5645875797
C     -0.1284341557     2.8749272054     -0.4119757528
C     0.137295829     2.6932151894     1.0362644904
C     1.3560780563     1.7800676165     -2.058704287
C     1.1036943522     2.7491263593     -1.0244646542
C     2.6581032261     1.2462585572     -1.8285789726
C     1.8383729849     -1.0144603959     -2.1751275408
C     1.5504029576     -2.2199264175     -1.4008621751
C     2.8980853107     -0.1479346851     -1.8128415575
C     1.5138453568     -2.7176261925     0.987109918
C     1.9464189296     -1.7330820599     1.997906417
C     2.2697103453     -2.4670043215     -0.2004950426
C     3.6477765717     -0.4638122306     -0.5947072047
C     3.0293770682     -1.039206226     1.538555546
C     3.3385993605     -1.5553825981     0.1768363131
C     1.8812509919     1.1419268122     1.9783538422
C     1.5405818261     2.3324455715     1.2329891172
C     2.1723233881     2.6200247008     -0.0031646537
C     3.1533849027     1.7893868354     -0.5273751371
C     3.047568055     0.4194232572     1.5145838199
C     3.6547600419     0.7527076744     0.2582636595


