48

 C     -4.2776326415     0.5718996637     0.0000195449
C     -4.0968207573     -0.7694689622     0.0000192716
C     -3.3481830659     -1.2122625325     -1.1966629785
C     -3.5669810919     1.087463941     -1.2073801692
C     -2.9033308897     -0.0268534456     -1.8978761314
C     -2.7473131617     2.0917124142     -0.757423395
C     -3.5669684495     1.0874645534     1.2074121473
C     -2.7473058848     2.0917134959     0.7574474468
C     -3.3481707271     -1.2122611378     1.1966953576
C     -2.9033123876     -0.0268517575     1.8979036882
C     -2.413101975     -2.1541311228     -0.7548019034
C     -2.4130946911     -2.1541306987     0.7548267944
C     -1.1686725322     -2.2105066946     -1.3934888728
C     -1.5141621622     0.0775838247     -2.2957420098
C     -0.7300004733     -1.1194559574     -2.220415168
C     -1.3960677235     2.258069504     -1.1794766582
C     -0.7388486373     1.3138526315     -2.0268303928
C     -1.3960561496     2.2580704194     1.1794876559
C     -0.6766333132     2.6982964772     0.0000020895
C     -1.5141398096     0.0775859902     2.2957561534
C     -0.7388290162     1.3138546065     2.0268364634
C     -1.1686588113     -2.2105051621     1.3935020988
C     -0.7299789488     -1.119453931     2.2204234218
C     -0.0000025806     -2.7117006163     -0.701592651
C     0.0000042851     -2.7116999292     0.7015953886
C     0.729979751     -1.1194556292     -2.2204221791
C     1.1686602278     -2.2105058116     -1.3934998248
C     0.738828408     1.3138530958     -2.0268375568
C     1.5141399369     0.077584659     -2.2957560567
C     0.6766319599     2.6982968365     -0.0000044902
C     1.3960550509     2.2580700954     -1.1794896345
C     0.7388480731     1.3138549703     2.0268292961
C     1.3960666114     2.2580714107     1.1794746799
C     0.7300012701     -1.1194534327     2.2204163999
C     1.1686739532     -2.2105047     1.3934911433
C     1.5141622637     0.0775868731     2.2957421009
C     2.4130960844     -2.1541300498     -0.7548245769
C     2.4131033586     -2.1541290321     0.7548041221
C     2.9033125636     -0.0268519137     -1.8979034997
C     3.3481715786     -1.2122603803     -1.1966940349
C     2.7473048805     2.0917143373     -0.7574492736
C     2.7473121552     2.0917146769     0.7574215727
C     3.5669679941     1.0874654089     -1.2074130067
C     2.9033310706     -0.0268500041     1.8978763211
C     3.3481839124     -1.2122594997     1.1966643021
C     4.0968213723     -0.7694666521     -0.0000183765
C     3.5669806473     1.0874671022     1.207379313
C     4.2776324719     0.5719020652     -0.0000199326


