48

 C     4.5637067325     -0.6986599932     -0.1221121877
C     4.3855532951     0.1465308867     1.0182861618
C     3.9607515052     1.4152899243     0.5833406422
C     4.1074468174     0.0840097264     -1.2790589356
C     3.7254968766     1.4125517528     -0.830772895
C     3.1248669314     -0.6552761522     -1.9820094694
C     3.5724727484     -1.7355901472     0.0143717387
C     2.8475006857     -1.8994477865     -1.1866036978
C     3.2535630817     -0.3265991009     1.8147481805
C     2.7628854756     -1.5272403333     1.2400697956
C     2.7348243043     1.8370115524     1.2792209624
C     2.3050770775     0.7680122624     2.1306163034
C     2.382278704     1.8925042618     -1.021271446
C     1.8275128857     2.2866662934     0.3146557697
C     1.8676459683     -0.116616463     -2.310699803
C     1.4590311461     1.2102034696     -1.866029225
C     1.4686181633     -2.1027834605     -1.155732672
C     0.8482238641     -1.1520480318     -2.0775647377
C     1.3576846667     -1.7786152164     1.252394132
C     0.7128932991     -2.3027104554     0.0594671703
C     0.9373409344     0.4906241149     2.2412005782
C     0.5055629867     -0.9065176161     2.0810938365
C     0.4430167888     2.2021135772     0.5738079343
C     -0.0330746456     1.4568373959     1.714578239
C     0.0330597091     1.4569012623     -1.714552267
C     -0.4430377283     2.202137624     -0.573750798
C     -0.5055546948     -0.9064584279     -2.0811168292
C     -0.9373461321     0.4906823799     -2.2411725287
C     -0.7128573897     -2.3027253607     -0.0595270762
C     -1.3576694731     -1.7786023673     -1.2524476805
C     -0.8482140136     -1.152128065     2.0775326532
C     -1.4685780128     -2.1028293052     1.1556640843
C     -1.4590497596     1.2101260194     1.866048034
C     -1.8676601393     -0.1167160539     2.3106954546
C     -1.8275294269     2.2866783951     -0.3145891455
C     -2.3822902887     1.8924454609     1.0213168596
C     -2.3050886256     0.7680523356     -2.1305790207
C     -2.734844311     1.8370220524     -1.2791540305
C     -2.7628635797     -1.5272565246     -1.2401075318
C     -3.253554856     -0.3265707801     -1.8147234269
C     -2.8474799715     -1.8995160539     1.1865383202
C     -3.1248675039     -0.6553724459     1.9819838695
C     -3.5724382365     -1.7356452974     -0.0144195773
C     -3.7255230868     1.4124947518     0.8307964463
C     -3.9607865667     1.4152955554     -0.5832975211
C     -4.3855538189     0.1465166325     -1.0182772653
C     -4.1074595998     0.0839226199     1.2790436666
C     -4.5636947868     -0.6987028685     0.1220939351


