48

 C     4.6842994418     0.5063417941     0.5354738018
C     4.6842944305     -0.5063154248     -0.5355025689
C     4.0338002973     -1.5995772166     -0.0254343257
C     3.8246435431     0.0169257576     1.6633142537
C     3.4781734524     -1.3034381296     1.3445013596
C     2.7250277064     0.9534652638     1.8817993919
C     4.0337860488     1.5995879209     0.0254146261
C     2.9098758581     1.9806764923     0.8523310989
C     3.8246413685     -0.0169113461     -1.6633368093
C     3.4781594474     1.3034611549     -1.3445182525
C     2.9098966824     -1.9806766814     -0.8523383793
C     2.7250368861     -0.9534519797     -1.8818127398
C     2.1266510429     -1.7357532651     1.3631523496
C     1.8266039301     -2.2491063991     -0.0128115456
C     1.3967706642     0.4955276291     2.1107999305
C     1.0958965467     -0.9346380256     1.9356278053
C     0.2734050679     1.3325991552     1.6774541063
C     1.8265881372     2.249136649     0.0128140583
C     2.1266457295     1.7357693973     -1.3631618534
C     0.5191402309     2.1169660861     0.5001321532
C     1.3967771681     -0.4955179317     -2.1107967183
C     1.0958930101     0.9346372429     -1.9356207241
C     0.519146726     -2.1169554045     -0.5001320212
C     0.2734064866     -1.3326015555     -1.6774556975
C     -0.2734007679     -1.3326630647     1.6774079528
C     -0.5191366098     -2.1169798604     0.5000551583
C     -1.0958964258     0.9345637298     1.9356566809
C     -1.3967730529     -0.4956035094     2.1107794885
C     -2.1266527451     1.7357076875     1.3632245215
C     -0.5191497773     2.1169802023     -0.5000551974
C     -0.2734115692     1.3326572975     -1.6774038939
C     -1.8265992235     2.2491251301     -0.0127311471
C     -1.095891822     -0.9345744948     -1.9356628016
C     -1.3967732058     0.4955968324     -2.1107819248
C     -1.8265915629     -2.2491192661     0.0127299465
C     -2.1266422822     -1.7357142271     -1.3632133822
C     -2.7250311755     -0.9535352561     1.8817766301
C     -2.9098855841     -1.9807188776     0.8522672606
C     -3.4781663388     1.3033917826     1.3445636218
C     -3.8246441959     -0.0169902369     1.6633364061
C     -2.9098855209     1.980692606     -0.8522592603
C     -2.7250323527     0.9535205838     -1.8817659005
C     -4.0337947439     1.5995682666     -0.0253578656
C     -3.4781674347     -1.3034073105     -1.3445487478
C     -4.0337922271     -1.5995955788     0.0253761329
C     -4.6842963042     -0.5063585571     0.5354840289
C     -3.82464403     0.016967047     -1.6633135399
C     -4.6843039506     0.5063378905     -0.5354574669


