48

 C     -3.6918935132     -0.9709066744     -0.0783753077
C     -3.7090166089     0.4120106138     0.1800653934
C     -3.2645161183     1.0659962455     -1.0107543375
C     -3.0731863514     -1.2250817768     -1.3855034257
C     -2.8405894506     0.0308172085     -1.9910385922
C     -1.9751170737     -2.0760281304     -1.1792160759
C     -2.9406802565     -1.6367772779     0.9295180167
C     -1.9307423106     -2.4002866862     0.2939086154
C     -2.9893914294     0.6474115634     1.4344949466
C     -2.5494996049     -0.6636275549     1.9373528097
C     -2.0998950897     1.7200457099     1.4984576527
C     -2.2888222023     2.0675191594     -0.970178608
C     -1.7837991647     2.5062292946     0.2947129792
C     -1.5784879914     0.388926886     -2.5025732999
C     -1.3085951649     1.757407338     -2.0298377291
C     -0.7406979408     -1.8464026735     -1.8641615044
C     -0.4937023088     -0.5583967143     -2.5382292958
C     0.3766633077     -2.5790807483     -1.3619581486
C     -0.6888866711     -2.6219701466     0.939498846
C     0.4044144961     -3.0023791719     0.0920827096
C     -1.292315113     -0.7915490924     2.5228950468
C     -0.3925976062     -1.8731745597     2.1362003321
C     -0.865490744     1.6184296473     2.2647038898
C     -0.4764058099     0.3786097763     2.793490906
C     -0.4386842688     2.9660824686     0.3951341495
C     0.1334608756     2.4772949099     1.6597346439
C     -0.0329876209     2.2243656967     -1.9405456014
C     0.3876043222     3.0062721377     -0.7639560916
C     0.8848492402     -0.0475523671     -2.5838244682
C     1.0942400227     1.3764775693     -2.3507037836
C     1.676251951     -2.2562697317     -1.7386808038
C     1.9614389721     -0.9114039418     -2.2104568839
C     1.719340115     -2.8967720893     0.5358141039
C     2.5444603704     -2.547613301     -0.6101993754
C     0.9611474487     -1.450252109     2.3765947471
C     0.9190839738     -0.0281336667     2.7424080034
C     2.0246328182     -1.9622567313     1.6104473243
C     1.4913573993     2.1500824173     1.74072731
C     1.8919581862     0.8431816022     2.269258691
C     1.7698985818     2.7987567248     -0.6310545083
C     2.2259598241     1.8368925072     -1.6555194163
C     2.3382028711     2.4174594017     0.6029848078
C     3.0574638424     -0.4233059625     -1.3795618346
C     3.2708134963     -1.4118100651     -0.3166201266
C     3.0224064085     -1.0418068991     1.090867325
C     2.9682142193     0.3208310687     1.4131107435
C     3.1343208348     0.9246264132     -1.0396295487
C     3.1878168363     1.2871167121     0.3781147739


