48

 C     -3.7856486326     -0.9938072549     -0.1216735718
C     -3.7004202548     0.1925027457     0.749658011
C     -3.5557906275     1.3114608244     -0.0973581662
C     -3.3109581272     -0.5832705569     -1.4478067361
C     -3.2049748849     0.7914871167     -1.4754593039
C     -2.1479683962     -1.3750824555     -1.7919305744
C     -2.9046527643     -1.9392172616     0.344981011
C     -1.9449598845     -2.3052271604     -0.7084039908
C     -2.7456540609     -0.0448765454     1.7891212062
C     -2.3396073336     -1.4585170533     1.6182388798
C     -1.7265410955     0.9331309692     2.1130136625
C     -2.6146117342     2.266821279     0.2137351095
C     -1.7461813308     2.1581188496     1.3441636166
C     -1.9988668933     1.4519301848     -1.9160783919
C     -1.7487418512     2.4817902336     -0.9698127702
C     -1.0064648863     -0.7694410949     -2.4106545224
C     -0.8702812968     0.7058888759     -2.424972723
C     0.1878398074     -1.5450022538     -2.333423765
C     -0.6552717755     -2.7701747881     -0.3376746013
C     0.3974970127     -2.5465759331     -1.2646113891
C     -1.0993846355     -1.8876154788     1.9756740164
C     -0.304885281     -2.7577755086     1.0788711783
C     -0.41145392     0.4469578299     2.6157691635
C     -0.1696136954     -0.9796103109     2.6594020627
C     0.7593653952     1.2473447931     2.4623370015
C     -0.4851686831     2.7336036082     0.9201797592
C     -0.466805691     2.8304182182     -0.5502715991
C     0.6909751749     2.4266661482     1.5736756036
C     0.4632839967     1.3002569933     -2.2871434504
C     0.6753299324     2.3950160666     -1.2977571606
C     1.4192460012     -0.9483238822     -2.6063104615
C     1.5965439376     0.4587743651     -2.5684573634
C     1.7877977167     -2.500877977     -0.8650252142
C     2.4517314969     -1.5974101606     -1.7632088445
C     1.0265597851     -2.5687945269     1.4362941013
C     1.1165667512     -1.5007517631     2.4560260173
C     2.1016122292     -2.4067195115     0.517518224
C     2.093225328     0.6867453182     2.3074522098
C     2.2537155836     -0.7133022161     2.1864614093
C     2.946899252     -1.304077613     1.0116260858
C     1.8901405883     2.5117663438     0.8354700928
C     1.92365686     2.4966396122     -0.5970738928
C     2.8172143557     1.512188548     1.3674665316
C     2.8721461464     0.6615741071     -1.8918038838
C     3.3321982077     -0.6420396949     -1.3268973578
C     3.5928406857     -0.4550109572     0.0915419969
C     3.0184392829     1.6206319264     -0.9314731802
C     3.5300842087     0.9717890013     0.3166039639


