48

 C     -3.5887301346     1.5591794334     -0.3663067918
C     -3.4456903894     0.4656877142     -1.3158834605
C     -3.6825954937     -0.7383383571     -0.6520800764
C     -3.4398291195     0.9292557894     0.9703713626
C     -3.5868141091     -0.4437768824     0.8242379809
C     -2.259376625     1.4411691321     1.6308047134
C     -2.4612743916     2.3383326935     -0.5212346726
C     -1.7771064358     2.4983828258     0.7569349621
C     -2.1977979236     0.6293772594     -2.0754430939
C     -1.6299848491     1.8773044471     -1.6564316823
C     -1.3180889154     -0.4825173601     -2.3298320037
C     -2.8513227532     -1.8278810212     -0.8973651087
C     -1.7183329488     -1.7622684948     -1.782057513
C     -2.6479423155     -1.347935301     1.4042121186
C     -2.3583679611     -2.3156403615     0.37500194
C     -1.3008179772     0.5808890858     2.285852066
C     -1.5399245108     -0.8701059199     2.2005191766
C     0.0896627974     1.080838432     2.4001695847
C     -0.4622739371     2.8482109387     0.7159181914
C     0.4617504447     2.3064967061     1.7138737133
C     -0.2421400066     2.1457033375     -1.657345916
C     0.2452343546     2.9570467095     -0.5541415739
C     0.1215953972     -0.2084358973     -2.500279212
C     0.6677061977     1.1558523329     -2.2718411225
C     1.0209420495     -1.3134154962     -2.3231196342
C     -0.7063338313     -2.6375667943     -1.2113596243
C     -1.0921514484     -2.9124400537     0.1919626037
C     0.6127004915     -2.4605679977     -1.5156313958
C     -0.3899021186     -1.7335517142     2.2438832471
C     -0.1479444686     -2.7516727743     1.1920174932
C     1.1722335394     0.159795191     2.6009232106
C     0.8752898886     -1.2321076751     2.5599034263
C     2.5025911371     0.333161666     2.0014529371
C     1.7590729631     2.5015170553     1.2234270443
C     1.6071836792     2.8875493165     -0.2042921655
C     2.7822845442     1.5089604537     1.3021119713
C     2.077424672     1.308018264     -2.0300394862
C     2.51790118     2.1802309522     -0.9585581676
C     3.383862882     1.4160113218     -0.0370076321
C     2.3984951622     -1.1044995272     -2.0310834213
C     2.9282713461     0.1569832496     -1.9221550333
C     3.6560098877     0.205468918     -0.6206480811
C     1.6614429555     -2.7041353198     -0.492922897
C     1.2751004524     -2.7799694513     0.8713367356
C     1.9240272918     -1.9152219593     1.7930713976
C     2.9037723526     -0.9734963261     1.4198261278
C     2.772602708     -1.9111592157     -0.8369064943
C     3.4275852892     -1.0447183253     0.0861532556


