48

 C     -3.2282630292     0.7080948027     -1.4210372676
C     -2.9209996876     -0.6209855287     -1.7133721998
C     -3.1125399969     -1.429157464     -0.494722957
C     -3.3997449822     0.7992225488     0.04400288
C     -3.3327090881     -0.5086677584     0.599927778
C     -2.5904285832     1.8648556593     0.5393197245
C     -2.316485827     1.7005307677     -1.7974006656
C     -2.0184394642     2.5024048436     -0.6107445907
C     -1.082011199     1.3906319277     -2.4289289354
C     -1.6913503516     -0.9936749131     -2.3322106093
C     -0.7152369697     0.0062412314     -2.6985160553
C     -2.106347514     -2.4013878124     -0.4410332734
C     -1.2515600251     -2.2064300371     -1.6349610081
C     -1.4932506406     -2.6957147194     0.8144086209
C     -2.5908253149     -0.6961084356     1.800836635
C     -1.8314740163     -1.874786217     1.9370561885
C     -1.7566485259     1.6842116811     1.7241165183
C     -1.8136195153     0.4226459715     2.3911553134
C     -0.4947441599     2.3968133571     1.7495687666
C     -0.6724108218     2.9261932471     -0.6698626634
C     -0.0803075252     2.3026970558     -1.877260094
C     0.0741161989     3.0040741435     0.5033498334
C     1.2507230306     1.986117396     -1.8970617707
C     0.7137745063     -0.3417056514     -2.6772960577
C     1.6902135111     0.6962121313     -2.4386989153
C     0.0793824971     -2.518039281     -1.5764805581
C     1.0807302978     -1.6814311932     -2.2378267344
C     -0.073896446     -2.9181124213     0.8726846365
C     0.6724905269     -2.9868498905     -0.3012765795
C     -0.6030252199     -1.5517006755     2.6466638961
C     -0.6113056215     -0.1547603177     2.9718759298
C     0.4955465067     -2.1603271132     2.0333750875
C     0.6040463961     1.8681934457     2.4323183527
C     0.6127898374     0.5230442319     2.9296069262
C     1.493854683     2.7761591391     0.4722962751
C     2.1060352807     2.3281890205     -0.7374244782
C     1.8327314283     2.1009876412     1.6877965449
C     2.9202451637     0.4032463366     -1.7792759436
C     3.111646692     1.3560209751     -0.6700437908
C     2.3156371937     -1.9108732921     -1.5734403003
C     2.0185043947     -2.5596346218     -0.2961732012
C     3.2270692047     -0.8793561982     -1.3235761353
C     1.7575959744     -1.4570657512     1.9190535304
C     1.8147506406     -0.1221195005     2.4237295846
C     2.5917609145     0.9145774412     1.6989804001
C     3.3330857126     0.5789833882     0.529989195
C     2.5907905162     -1.7835749487     0.765328108
C     3.400104417     -0.7878806421     0.1411810589


