48

 C     3.9155272126     -0.4205446585     0.137231261
C     3.2835085996     -1.6106184968     0.704480643
C     2.7162193735     -2.3476490433     -0.3267708145
C     3.4256958838     -0.2856842894     -1.2279812062
C     2.7242963552     -1.4605577605     -1.5418209033
C     2.7876568101     0.9845251263     -1.4223908122
C     3.4026800281     0.6838461062     0.8123990348
C     2.9677392705     1.682778048     -0.1455254067
C     2.4116340923     -1.1891724861     1.7967761001
C     2.4504028056     0.2612160941     1.841161456
C     1.1783459567     -1.8229213313     1.9677488392
C     1.4213431603     -2.9167098427     -0.2092219882
C     0.7227971736     -2.8259643181     1.0153756165
C     1.4149237467     -1.4352780205     -2.0583951794
C     0.6822894546     -2.5221906483     -1.4110511141
C     1.4887803505     1.0667187321     -2.0501624169
C     0.7283629281     -0.1764277179     -2.3433546767
C     0.7172089636     2.2343396316     -1.7586932919
C     2.0484598698     2.5994783601     0.286169116
C     1.1272195749     3.1283375263     -0.6733834292
C     1.2776716465     1.0393138827     2.1093468704
C     1.2342184664     2.3416762562     1.4956667801
C     -0.0006756939     -1.0672835195     2.3726855999
C     -0.0007452693     0.3559251335     2.4061852707
C     -0.7232285301     -2.82602366     1.0149611703
C     -1.1793866002     -1.8230329239     1.9670666103
C     -0.6812873691     -2.5221943056     -1.4114355459
C     -1.4210559246     -2.916790971     -0.2100654619
C     -0.7268951771     -0.17647634     -2.343744322
C     -1.4135665691     -1.4353150518     -2.0592433251
C     -0.7162942073     2.2342563577     -1.7590736476
C     -1.4875917849     1.0666924813     -2.0509890299
C     -0.0001553681     3.6808428355     -0.0309917118
C     -0.0004889721     3.0157325576     1.281840173
C     -1.1270620698     3.1284671571     -0.6739549305
C     -1.2790125793     1.0392420847     2.1087128169
C     -1.2353185432     2.3416183075     1.4950389915
C     -2.0487408975     2.5993090525     0.2851371136
C     -2.412593318     -1.1892869031     1.7953495995
C     -2.4514966938     0.2610379946     1.8398203865
C     -2.7158888893     -2.3478357059     -0.3283941794
C     -2.7231954207     -1.4606173807     -1.5433214092
C     -3.2837984772     -1.6107208962     0.702485703
C     -2.786871154     0.9843674571     -1.4239456567
C     -2.9677268772     1.6825807162     -0.1471582131
C     -3.4031852978     0.6836015552     0.8104118223
C     -3.4249622373     -0.2858190749     -1.2299581673
C     -3.9157568022     -0.4207871082     0.1349758652


