82

 C     3.8831230565     1.1861307334     -1.2244468947
C     3.7484394405     1.9198077874     -0.0183665739
C     2.8946174324     3.0761308843     -0.0300648216
C     3.867642621     1.1927733716     1.1973922121
C     4.0562308837     -0.2119875812     1.2030746878
C     4.0787251877     -0.9788689919     -0.002099608
C     4.0660689454     -0.2349837128     -1.2110473389
C     3.040738514     1.5490787832     2.3576928291
C     2.1352105791     2.653285648     2.3099607317
C     2.110215596     3.4481862333     1.1463420255
C     0.9318835471     2.5383522803     3.0856784417
C     2.8144252514     -1.9580543054     2.3855788312
C     3.3836568562     -0.7173677695     2.3857611296
C     2.7119668207     0.370483518     3.059288272
C     1.4150078396     0.1780844996     3.6720306144
C     0.5889960184     1.3044497953     3.7435984755
C     2.9020300967     -2.8237662681     -1.1982688362
C     3.4704350287     -2.3167287149     0.0032001024
C     2.8831056537     -2.8032966413     1.2073104529
C     -0.2757807     3.1493148948     2.6575122866
C     -0.3307853976     3.8808626859     1.4335882285
C     0.8939567689     4.0567523431     0.7019119262
C     -1.5445548578     3.8406295472     0.699347267
C     -1.3951424171     2.3246300549     3.1018996196
C     -3.3090089445     1.0316471568     2.3840038254
C     -2.5984344453     2.2494923937     2.343921203
C     -2.682245482     3.0430589258     1.1485858571
C     1.554586975     -2.2024183159     3.0819726312
C     0.7969447971     -1.1573238668     3.6551676291
C     -0.6644899797     -1.2874990827     3.6650633661
C     -1.499505554     -0.0853870131     3.6930587187
C     -0.8603868243     1.1841920409     3.7467674746
C     -2.784158113     -0.1072209184     3.0844367298
C     -1.5402133145     3.8557603634     -0.728486321
C     -0.3028195023     3.8754994334     -1.4597507707
C     0.9012835622     4.0350374631     -0.725824969
C     -0.2388179577     3.1382352979     -2.679801646
C     -2.6424494955     3.0570111097     -1.1692055262
C     -3.2545905001     1.0265521203     -2.3701943904
C     -2.538655784     2.2623687145     -2.3286323257
C     -1.3321922541     2.3385899273     -3.1042480243
C     -4.0290781393     0.5514988443     1.2141542037
C     -4.0137515851     1.2909596048     0.0041899108
C     -3.3572235566     2.5696996958     0.0094668614
C     -4.0138415492     0.5478581421     -1.2076924001
C     0.9988944261     2.502192236     -3.120337039
C     2.1982659364     2.625719931     -2.3624870418
C     2.1527234675     3.4286798244     -1.1713615745
C     3.0956458341     1.5379592455     -2.3964901075
C     0.6549817657     1.2871781383     -3.7589936236
C     1.4901264831     0.1373472646     -3.698905753
C     2.7612793785     0.325798287     -3.0907234647
C     2.8576963014     -2.0071790051     -2.399458755
C     3.4182003478     -0.7547365895     -2.3963800083
C     -1.183576508     -2.4405063641     -3.0754397963
C     -0.6038196797     -1.2900912136     -3.6544245956
C     0.8595138183     -1.1833474952     -3.664258211
C     1.6066449516     -2.2421216487     -3.087646697
C     -0.7948568843     1.1725520133     -3.7558395365
C     -2.7400719319     -0.0874025685     -3.0657448979
C     -1.428796225     -0.0717074881     -3.6780211588
C     -1.1167341832     -3.8568564219     -1.1937270489
C     -0.4029086672     -3.4186668181     -2.3887399058
C     0.9692206739     -3.3192447236     -2.3894444443
C     -1.126478636     -3.8628502702     1.2060878463
C     -0.4086098775     -4.1211151335     0.0073264318
C     -3.2281571714     -1.2656532782     -2.3862423448
C     -2.4152329028     -3.2482352437     1.2085698996
C     -3.0573393103     -2.845618212     0.0047020856
C     -2.3988289953     -3.237590269     -1.1970915173
C     -2.4666172728     -2.3985004964     -2.379800975
C     -2.5034465646     -2.4288798724     2.4054459912
C     -3.2582638858     -1.2830398341     2.3960426193
C     -3.9808513872     -0.8805815132     1.2082783072
C     -3.8730748305     -1.6231259239     0.0032500874
C     -3.973820238     -0.8689502924     -1.2059342869
C     0.9418636956     -3.2970809513     2.4007378631
C     -0.4283741074     -3.4198478991     2.40150417
C     -1.2311827204     -2.4557471769     3.0943236868
C     1.7290292302     -3.6378142778     -1.1920198574
C     1.0615922375     -4.0019933217     0.0083830139
C     1.7174283137     -3.6208937502     1.2077345404


