82

 C     3.8220321294     0.4649437242     -2.3238396632
C     3.1765048857     1.758989962     -2.4047995137
C     4.433725605     0.0695845869     -1.135207228
C     3.2385143947     2.6394501979     -1.3286637627
C     2.1183263088     3.4721813574     -1.0260697709
C     1.9404832423     1.6141281683     -3.1205214234
C     0.8066442449     2.3828642066     -2.8109855803
C     0.9029820065     3.3790384974     -1.7414580532
C     -1.5622720188     3.3897709765     -1.5705341521
C     -0.3185338982     3.805220206     -1.057577934
C     -0.288916227     4.1043367707     0.3328921456
C     3.544724143     -2.2041835763     -1.3874028266
C     2.8883371665     -1.7911838154     -2.6135030133
C     4.2618292043     -1.2828222797     -0.6452429434
C     2.998470785     -0.4736896538     -3.0527454704
C     1.8294242958     0.2096070313     -3.5194058938
C     1.6325438956     -2.4649698982     -2.6919644226
C     0.476910407     -1.8309951633     -3.1840663174
C     0.5815344996     -0.4287597074     -3.5976546018
C     -1.6466335705     2.4662782433     -2.6975207529
C     -0.4924644617     1.8302382872     -3.1903853108
C     -0.5983137602     0.4262604399     -3.5977125655
C     -1.8459649781     -0.2117626509     -3.5130767158
C     1.371033818     -3.7463641945     1.2035188494
C     2.5769156251     -3.2004693833     0.6931839719
C     2.690494389     -3.1691226606     -0.72617283
C     1.5515275751     -3.3836785112     -1.560808633
C     0.3093142052     -3.7969525429     -1.0424205203
C     0.2838228822     -4.0901886759     0.34939268
C     -2.1131643514     -3.6368618939     0.4403540133
C     -0.9447856062     -3.9192792869     1.0989210956
C     -1.9558155721     -1.6145819752     -3.1079107978
C     -0.8210668193     -2.3820101727     -2.7984937421
C     -0.9142138246     -3.3736546302     -1.724470597
C     -2.1274262335     -3.4637611102     -1.0050776426
C     3.2725119203     -2.1671506241     1.4741992968
C     4.091783014     -1.2300294243     0.8003272802
C     0.7946368826     -3.2655589685     2.4499568287
C     1.4194032988     -2.2678706341     3.1512554243
C     2.6652154383     -1.7055338737     2.6774467222
C     -1.3956923571     0.0620996055     3.7138570198
C     0.6249145618     -1.2284399199     3.7604716259
C     -0.7966813678     -1.2104188869     3.628665399
C     -1.4714682209     -2.2638729703     2.8659029836
C     -2.7347640755     -1.9722867778     2.1761605229
C     -0.6543579162     -3.2996031328     2.353897477
C     -3.0670136602     -2.7390530533     1.0319938827
C     2.6583426365     -0.3280345953     3.0326097126
C     3.3211915446     0.6501870925     2.2555551669
C     4.1386052237     0.1486947175     1.1984174012
C     4.3967896827     0.9458984218     0.0178267257
C     3.8456849379     2.20720958     -0.0788068954
C     1.4738684799     2.2886816965     2.8518893104
C     2.7350967214     1.9941631587     2.1596549949
C     3.0639381449     2.756098931     1.0112423393
C     0.6552332125     3.3222588696     2.3379358028
C     0.9419177815     3.9365980923     1.0795030382
C     2.108361404     3.6513830996     0.4186772222
C     1.400643614     -0.0336553167     3.7099037957
C     -0.6198579025     1.2570348771     3.7570604763
C     0.8013675849     1.2384650794     3.6211313262
C     -2.6633633488     1.7295667451     2.6780980065
C     -1.4161762425     2.2939243747     3.1458275483
C     -0.7934881257     3.2886069118     2.4384475489
C     -4.0954978198     1.2461572023     0.807247088
C     -3.2742499414     2.1860972271     1.4746875981
C     -3.8519706574     -2.1947916768     -0.0580581655
C     -4.4028145458     -0.9330800841     0.0348728692
C     -4.1411240138     -0.1309042745     1.2113013405
C     -3.3205775069     -0.6278992736     2.2681078064
C     -2.6554208896     0.3536077811     3.0390339732
C     -3.8350055085     -0.4620325188     -2.3104990807
C     -3.1897203049     -1.7564178198     -2.3879120174
C     -3.2485112284     -2.6322968313     -1.3078691175
C     -4.4431887406     -0.061648266     -1.1217434038
C     -3.5549479502     2.2110240126     -1.3862074197
C     -2.9021966673     1.7928392431     -2.6124848828
C     -3.0136272283     0.4734996834     -3.0458176725
C     -4.2698541456     1.2928183914     -0.6380303107
C     -1.3735690058     3.7641242139     1.1916935005
C     -2.5809661311     3.2160893981     0.6872487534
C     -2.6987649689     3.1787496432     -0.7316089196


