82

 C     -0.3848428886     4.0964208992     -0.3124760273
C     -1.5124746029     3.6838069444     -1.0877204873
C     -2.6671574724     3.2401181604     -0.3884994616
C     -1.235927704     3.1406405183     -2.3740568834
C     0.1068011667     2.887168198     -2.7915861098
C     1.2363818106     3.2178692654     -1.9845078279
C     0.9593339048     3.9349655534     -0.7931981345
C     -2.0755467464     2.1104784135     -2.9374350292
C     -3.1633227171     1.5855768984     -2.2035238654
C     -3.476311116     2.1776279354     -0.9317402879
C     -3.4797555751     0.1928036679     -2.35774096
C     -1.2397023113     1.2458074215     -3.7354795992
C     -0.3954161594     -1.0149173465     -3.9846991147
C     -1.5200603223     -0.1458487649     -3.8399077062
C     -2.674885779     -0.6635792062     -3.1929935291
C     3.3208769023     2.4036885513     -0.9601951084
C     2.4408124928     2.3836295269     -2.0712609084
C     2.4385819205     1.1910515739     -2.9279486656
C     1.2319518009     0.845663739     -3.6887012089
C     0.1045525452     1.7189569083     -3.6305730244
C     0.9505795184     -0.5113490855     -3.9867572481
C     -4.0095582315     -0.5842464006     -1.2777690078
C     -4.2040090089     -0.002361263     0.0111942342
C     -4.0054669722     1.4043342245     0.1502449612
C     -4.0027542436     -0.8266718251     1.1584211757
C     -3.4756130677     -1.9093922366     -1.4091652363
C     -2.067456608     -3.6084635461     -0.3545235343
C     -3.1568205708     -2.7126156933     -0.262395338
C     -3.4701359986     -2.1499455903     1.0231421903
C     -0.3936305309     -2.327025302     -3.3928809508
C     -1.5159939793     -2.7950659411     -2.6443901905
C     -2.6735882426     -1.9694417821     -2.6038347766
C     -1.2326889146     -3.634663776     -1.5312806764
C     -3.4653883004     -0.276415099     2.3693842854
C     -3.1484073509     1.1203561645     2.4908655023
C     -3.4673376711     1.9512413763     1.3636539787
C     -2.0568571631     1.4912761706     3.3087009214
C     -2.6581395005     -1.2778141162     3.0137883542
C     -0.3727857457     -1.7774624852     3.708510779
C     -1.4978848266     -0.8971029464     3.7434340101
C     -1.2171441174     0.4864415521     3.9156029469
C     -1.2263541885     -3.864576379     0.7902886781
C     -1.5031511498     -3.257927642     2.0470376099
C     -2.6603940332     -2.4423734559     2.1771576768
C     -0.3752470591     -2.9465169925     2.8682045268
C     -1.2197844774     2.6124332061     2.9556917373
C     -1.5032407995     3.3988214273     1.8049136002
C     -2.6636735077     3.0995526441     1.0376783968
C     -0.3806046264     3.9557129622     1.1200578477
C     0.1266273265     2.2812904054     3.3076072337
C     1.2523606376     2.7662545964     2.5763246844
C     0.9671293     3.7022690098     1.5504251791
C     2.9392664579     3.0327498343     0.2943734126
C     1.7925666154     3.7694548786     0.3710796018
C     3.3311159731     -0.3816629614     2.5497298913
C     2.4569483565     0.5934837025     3.0934416579
C     2.4555224515     1.9317520503     2.4890055132
C     3.3283958645     2.1700838343     1.3972016096
C     0.1282033302     0.9718936821     3.8994859574
C     0.9730875657     -1.2847739215     3.8032875615
C     1.2551365939     0.104862656     3.7781650351
C     4.1502832743     -1.3053069772     0.5533296276
C     4.1526365622     -0.1215034527     1.4033671828
C     4.1509683238     1.1390378084     0.8337146421
C     4.1463264504     -1.1684263865     -0.8232701305
C     1.7999611179     -2.2124893009     3.0734419218
C     3.3268188235     -2.3056947063     1.1676680856
C     2.9450778223     -1.7808006624     2.4688863424
C     0.1170916654     -4.0081635625     0.3229700276
C     3.3199138662     -2.0295217408     -1.6186326952
C     2.4450793133     -2.9847554884     -1.0420846773
C     2.4487153144     -3.1296433761     0.4191822102
C     1.2463588334     -3.6185473748     1.1034573501
C     0.9687393369     -3.1980866366     2.4291734395
C     2.9307253847     -1.2589918781     -2.7880183601
C     1.7819062731     -1.5639572519     -3.4594504925
C     0.9539544673     -2.6573533595     -3.0171269267
C     1.2392811414     -3.3308536169     -1.8028177565
C     0.1133309741     -3.8656142868     -1.1074952736
C     4.1470317469     1.2832631089     -0.6163738036
C     4.1446197729     0.1594957319     -1.4233022063
C     3.3165912812     0.1295386153     -2.5937183602


