70

 C     1.3793996857     -0.0316874112     4.521675049
C     2.594368566     -0.1637351072     3.8510300011
C     2.5895262956     -1.4280329349     3.138688706
C     0.5487775426     -1.1764583426     4.1761227353
C     1.3104862614     -2.0504372581     3.3090246567
C     -0.6905858865     -0.6758536622     3.7504304299
C     0.6125274433     1.1736784367     4.3960795801
C     -0.7081847331     0.7850852     3.9406463921
C     1.2286893324     2.2955250144     3.7996982727
C     3.0379341306     0.8602137623     2.930635526
C     2.4204123403     2.0961579847     2.9506310715
C     3.0444488345     -1.2014379688     1.8334835227
C     3.3077784432     0.224742956     1.6485522272
C     2.5546883575     -1.9803104846     0.7660012657
C     0.6877241439     -2.674331602     2.2219847461
C     1.4401585067     -2.8678940742     0.9931658702
C     -1.3893022591     -1.2886934433     2.6686335684
C     -0.7644770961     -2.4659767386     2.0686477648
C     -2.3298176208     -0.5141659882     1.8874506141
C     -1.4777316238     1.5897569351     3.0786850855
C     -2.3591498694     0.9354014798     2.088199438
C     0.3969434329     3.1945891828     3.1113053351
C     -0.9369681728     2.8988123931     2.7801285299
C     2.1976194646     2.7996901979     1.6882044747
C     1.062145482     3.6190818549     1.8682156427
C     3.0089713489     0.834517165     0.4139873085
C     2.4089954276     2.175224307     0.4148862936
C     2.7861408408     -1.4660302202     -0.5589551334
C     2.8761948257     -0.0262690527     -0.7562902638
C     2.3811521896     -2.2975285723     -1.6235549527
C     0.7948723113     -3.4897867816     -0.1480534136
C     1.3563684409     -3.3302396905     -1.4290350531
C     -1.3872404297     -3.0342299136     0.9730660213
C     -0.6218768533     -3.737592113     -0.0735854871
C     -2.8678479008     -1.0825293957     0.6579918131
C     -2.510816515     -2.4193552823     0.3480608281
C     -3.2903300671     -0.2473921819     -0.4664245513
C     -2.8169248234     1.7051744837     1.0073097176
C     -3.2576294713     1.1407831712     -0.2412580092
C     -1.1744546651     3.475913461     1.4651774942
C     0.1214661702     3.8077943302     0.8643788366
C     -2.1554382983     2.9659741271     0.6763021096
C     1.5786947016     2.5746813681     -0.7076652755
C     0.4005897421     3.3911806017     -0.4662431143
C     2.3979676218     0.537385153     -1.9954655749
C     1.665248037     1.8123800424     -1.959120495
C     2.2174140763     -1.7540986765     -2.8929156335
C     2.1414176976     -0.3582806986     -3.0833622685
C     0.5399521943     -3.3701883643     -2.6414220598
C     1.0705123403     -2.4011553154     -3.5361957417
C     -1.3990608961     -3.7694144224     -1.2290140144
C     -2.5533539372     -2.9132654622     -0.9978007368
C     -0.8600580526     -3.460065583     -2.5158272099
C     -3.1449181292     -0.7219366647     -1.8636460746
C     -2.7203733559     -2.0757669356     -2.0891672242
C     -1.6922044047     -2.4298602855     -3.102861513
C     -2.8363851385     0.1940031268     -2.8929139738
C     -2.9140394987     2.0561046433     -1.3125860971
C     -2.032313369     3.0459172775     -0.7548136581
C     -0.7510068183     3.2633990731     -1.3406552175
C     -2.7254857129     1.6032693504     -2.608915842
C     0.7031766809     2.0521385625     -2.965896517
C     -0.5449926408     2.7269494096     -2.6390361124
C     -1.6054974642     2.1091218642     -3.3393960757
C     1.0393312576     -0.147743677     -4.0016209677
C     0.2877406353     -1.4160712048     -4.1454522877
C     -1.1487133111     -1.4160261446     -3.9230988899
C     -1.8142268814     -0.1369902471     -3.9032195229
C     0.365193057     1.0403465621     -3.9582879887
C     -1.073621964     1.0358384137     -4.1247239671


