70

 C     1.5178793801     -0.0254678347     4.5177683075
C     0.7366980032     -1.1920396308     4.2202758993
C     1.4834805481     -2.104101679     3.4285123403
C     2.6149017161     -0.0991209179     3.5954017863
C     2.7000127358     -1.3962063202     3.023773674
C     2.5774969106     1.0124701766     2.6881962001
C     0.7354835292     1.0820521625     4.1031801228
C     1.417037852     1.8000625943     3.0689318448
C     -0.5582250834     -0.8121929849     3.7314464137
C     -0.5749107613     0.6409548145     3.7316507801
C     -1.2005254915     -1.5239883402     2.6757652341
C     0.8373068736     -2.9588418914     2.5019704264
C     -0.5420074834     -2.6739879911     2.0834151501
C     1.7338505687     -3.5806480576     1.5985526385
C     3.2065176235     -1.5802071659     1.7137362851
C     2.9503821802     -2.8727532993     1.1938135272
C     2.9084524245     0.8670110264     1.3087123448
C     3.309726322     -0.4326793276     0.8019471034
C     2.4117292197     1.8880667299     0.405269202
C     0.6973161661     2.5323617611     2.1064253898
C     1.3913579094     2.8289921868     0.8795483984
C     -1.3313763514     1.3518739517     2.7813701451
C     -0.7493543332     2.4932967895     2.1084738713
C     -2.246485288     -0.8225299522     1.9550525457
C     -2.3965801893     0.6248041605     2.1397920623
C     -2.7845489158     -1.3904728146     0.7409616392
C     -0.9366275197     -3.0803152871     0.7469275982
C     -1.9844907572     -2.3676283853     0.0401323925
C     1.2541622817     -4.2437612345     0.4381143365
C     -0.041608308     -3.8589161175     -0.0445177008
C     3.1323621225     -3.1508454785     -0.1867598705
C     2.2208333751     -4.1711111109     -0.6201406115
C     3.1723498577     -0.6893166297     -0.6201258509
C     3.0941113817     -2.034253848     -1.087767172
C     2.5148330542     1.6932173688     -1.022137874
C     2.673723703     0.3429686231     -1.5096512743
C     1.9400284765     2.6877967764     -1.9032813
C     0.7132117728     3.6506600577     -0.0512249677
C     1.1433430642     3.7494332079     -1.3815096402
C     -1.459446407     3.0777987472     0.9964397892
C     -0.7383192916     3.7459539922     -0.0170534664
C     -3.2260369913     1.3584254768     1.2593590955
C     -2.7353110059     2.5839117658     0.6473435607
C     -3.7693371072     -0.6344622388     -0.0037802974
C     -4.079553031     0.7102472891     0.3561431308
C     -3.8358097011     -0.7272319512     -1.4254033827
C     -1.9095678     -2.2473187471     -1.4197815276
C     -2.7677059282     -1.3445596583     -2.0905948331
C     0.1342607605     -3.5413431761     -1.4516902153
C     1.5344835948     -3.6300159143     -1.7367287872
C     2.1262051876     -2.3822372845     -2.1144065904
C     -0.6669708586     -2.5664267734     -2.0747860607
C     1.8783690736     -0.0431329984     -2.680026039
C     1.3617194431     -1.3859375707     -2.7497281317
C     -0.0573427205     -1.5878096738     -2.9494570389
C     1.3870892422     2.3119531912     -3.1630570078
C     1.1715434227     0.947672922     -3.401179763
C     -0.0467214616     3.8560367681     -2.2114514836
C     -1.2067149228     3.7812699581     -1.3931454452
C     0.1017967155     2.9801650454     -3.2969680265
C     -3.2174771231     2.6112152942     -0.7241675068
C     -4.0939936237     1.5009431245     -0.864929224
C     -3.9454800767     0.6250710694     -1.9504438125
C     -2.3496609982     3.0109301141     -1.7962521384
C     -2.2262354071     -0.4183450415     -3.0735149351
C     -0.8564627406     -0.4782723432     -3.4107886977
C     -0.2292421605     0.7436969549     -3.7379111645
C     -0.9079745143     2.0194640154     -3.5766459044
C     -2.9187374486     0.849409133     -2.9076679543
C     -2.1932147304     2.088292411     -2.93972755


