70

 C     1.6256880946     -0.13708914     5.255035968
C     0.7744414803     -1.3026870134     5.4113356048
C     1.2508273952     -2.2669375063     4.5313646207
C     2.6137749931     -0.4247411105     4.2250036022
C     2.4416485465     -1.7543183526     3.8034926077
C     2.622786065     0.6424373956     3.206771867
C     0.8527239695     0.8819793453     4.6962914343
C     1.5380979823     1.5116391643     3.552947824
C     -0.5509936121     -0.9386001981     4.8608093734
C     -0.536665937     0.4403303455     4.5223242752
C     0.1478011521     -2.771913798     3.7086529406
C     -0.9840592574     -1.8593646586     3.8554306416
C     0.437986472     -3.2298112994     2.4638561873
C     2.6393329404     -2.0848634357     2.4334053819
C     1.7840752116     -3.0885939866     1.8854915914
C     2.8719661786     0.3741028129     1.8548805011
C     3.0944345454     -1.0306532071     1.5011004243
C     2.3260909608     1.2936904448     0.8281603182
C     0.7924291955     2.1298845966     2.5699713817
C     1.3106667271     2.2186698997     1.2044440971
C     -1.2356156195     0.9009268235     3.407600795
C     -0.6642986572     2.0617188001     2.7199996361
C     -1.694078376     -1.4111553492     2.6926253803
C     -1.9949564381     -0.0140996686     2.5739462492
C     -0.5122498902     -3.0951189808     1.3665887759
C     -1.559521371     -2.1374058553     1.4158169339
C     1.629953272     -3.2194801583     0.4899395845
C     0.2010113494     -3.284357902     0.1605355615
C     3.0995393254     -1.3210711121     0.1451786224
C     2.4635398452     -2.5043141338     -0.3659550853
C     2.4683026017     0.9875229418     -0.5925167292
C     2.9549508296     -0.3037980879     -0.8936427178
C     1.7304050555     1.7144955904     -1.6379781776
C     0.5042628733     2.8837885932     0.1922750318
C     0.755979918     2.7070113032     -1.2366652658
C     -1.4062891379     2.6014316445     1.7331625091
C     -0.7988259496     3.2884453425     0.5966404758
C     -2.6106948026     0.4934305246     1.3643467063
C     -2.594921753     1.9097382459     1.2300236361
C     -2.0498810554     -1.5891913145     0.15268415
C     -2.7396070075     -0.3013331142     0.1538632702
C     -0.285992658     -2.8340980844     -1.0676344071
C     -1.5277097572     -2.0776734002     -1.1077092619
C     2.0321318727     -2.2454332334     -1.6906010981
C     2.5262583643     -0.9491052499     -2.0943849288
C     0.712290826     -2.5808391638     -2.092732817
C     1.6811727227     1.1662068521     -3.0056198638
C     1.9699638435     -0.2569716457     -3.17157388
C     0.8061325118     1.7500955342     -3.9664003345
C     -0.2701134738     3.1230371529     -2.2021625834
C     -0.1884372647     2.6787792888     -3.5370888621
C     -1.8206428548     3.4307538313     -0.3557538544
C     -2.9121446291     2.5013612487     0.0230917672
C     -1.6133242361     3.3826453175     -1.7172453265
C     -3.0811723049     0.3397001749     -1.1145347663
C     -3.2356297692     1.7665330933     -1.1213546873
C     -2.6971999851     2.5346437377     -2.2422072091
C     -1.938241315     -1.4940144528     -2.3820917527
C     -2.7691869383     -0.3025838444     -2.404819211
C     0.2896012623     -2.0171834792     -3.2905780098
C     1.0886948408     -1.0431727489     -3.9995235162
C     -1.110541323     -1.7448134188     -3.5364737677
C     0.2039299717     0.9536902912     -5.0608020336
C     0.2435658211     -0.4291805276     -4.9293057387
C     -1.1532068624     -0.9249638007     -4.6895864455
C     -1.4239820054     2.323993027     -4.2654200268
C     -2.5790222754     1.9533027681     -3.4529136431
C     -2.7702769984     0.5140241659     -3.5997168145
C     -1.1819197682     1.3410236728     -5.2030108843
C     -1.9950557338     0.1698984622     -4.761086048


