70

 C     1.6209048386     -0.302338828     5.0738206361
C     0.7604298397     -1.4943221393     5.0736271631
C     1.246542896     -2.346253238     4.0244351838
C     2.5719754381     -0.4693722312     4.0389165095
C     2.4489797303     -1.7894671634     3.4601633486
C     2.6119290141     0.6904743987     3.1315640974
C     0.8513180125     0.8168606055     4.6462089537
C     1.5266988768     1.5289400927     3.5386071513
C     -0.4855144658     -1.0566483641     4.5759511007
C     -0.4993008564     0.3847294026     4.4306174538
C     0.1868632386     -2.6848357583     3.0834081114
C     -0.9227865448     -1.8379024229     3.4095522512
C     0.491900423     -2.9458897705     1.7439725084
C     2.7399266106     -1.9690794214     2.1128995487
C     1.8886587008     -2.8766662843     1.3559691201
C     2.8815622945     0.5162597708     1.7726769694
C     3.2649449203     -0.8279178503     1.3405970353
C     2.2906474478     1.4294683089     0.768451013
C     0.7724026644     2.1886648234     2.5852149009
C     1.2432559295     2.3002394973     1.1876602545
C     -1.2442097817     0.9641560038     3.4090897588
C     -0.6719546353     2.1480658619     2.7764875248
C     -1.6877656048     -1.254517573     2.3920321136
C     -2.0695326251     0.1451721113     2.5350719373
C     -0.5227693325     -2.6855965375     0.7122337294
C     -1.6185857491     -1.7991921043     1.0221379452
C     -0.1898530327     -2.9501637767     -0.6708528262
C     2.1920189313     -3.0565045942     0.0140448494
C     1.1784063781     -3.2756387331     -0.970739938
C     3.5016555123     -1.008930249     -0.0031248852
C     3.2622766155     -2.299609394     -0.5972907935
C     2.4476255199     1.1551751994     -0.6607175603
C     3.1897661924     -0.0043901991     -1.0091029914
C     1.5677346322     1.7587570571     -1.6653602143
C     0.398823247     2.9486066883     0.2004117212
C     0.5465033457     2.6911498991     -1.226605618
C     -1.4393699447     2.7647594639     1.8466404271
C     -0.8749927424     3.4158275735     0.662119364
C     -2.804769682     0.7735603958     1.5011416476
C     -2.7116252129     2.2072332325     1.4485612189
C     -2.3894623721     -1.175116014     -0.0410294808
C     -3.1358048079     0.0528699456     0.2624889642
C     -1.048650047     -2.4553312285     -1.7282597574
C     -2.1516806861     -1.5534707022     -1.4291596395
C     -0.4933931742     -2.4158544582     -3.0589984156
C     1.7628043118     -2.8672090809     -2.2299475908
C     2.9796766899     -2.1293661867     -1.952306033
C     2.9297316881     -0.7091474738     -2.2284997447
C     0.9569162137     -2.4093282188     -3.218699505
C     1.4701368884     1.1366721748     -2.9995711193
C     2.057962738     -0.1874842928     -3.2158878998
C     1.301276986     -1.1787697637     -3.9480911191
C     0.3791121447     1.5017737062     -3.8462444331
C     -0.5872862022     3.0107589838     -2.1231279434
C     -0.6699423302     2.3411093374     -3.3597296507
C     -1.9433811269     3.6926855539     -0.1987307259
C     -3.1145368644     2.9188342324     0.3161553116
C     -1.8539826457     3.4575288479     -1.574517958
C     -3.6717369689     0.8137765008     -0.8080281553
C     -3.6936782845     2.2693841255     -0.7434838675
C     -3.0975547066     2.7758655232     -1.9662188387
C     -2.6923134311     -0.7120450728     -2.5112993434
C     -1.9633857109     1.7408529704     -3.7888087048
C     -3.3654900429     0.476961494     -2.165648647
C     -3.0337349891     1.7390167439     -2.8701998632
C     -1.0113690485     -1.5853606329     -4.0591137823
C     0.1427971488     -0.8074787253     -4.625843612
C     -0.2485995902     0.5080068492     -4.6902737384
C     -2.0685308376     -0.709511453     -3.8254484443
C     -1.686622002     0.5665125512     -4.4419669838


