70

 C     1.2531933799     0.262966765     4.6228400205
C     2.4520092378     0.0842940252     3.9616035167
C     2.4905263047     -1.3053376949     3.4753023974
C     0.4230478821     -0.9690195332     4.3775982895
C     1.170127659     -1.8888758286     3.6173021403
C     -0.8802510561     -0.5575083072     3.9921603746
C     0.4616396788     1.3706984849     4.3177819468
C     -0.8957713642     0.8758415768     4.0661506452
C     0.8010929114     2.2475498047     3.2467396477
C     2.8305115319     0.9333510108     2.8633407798
C     1.9820831128     2.0156128384     2.4496356176
C     3.0973191986     -1.3172839294     2.2483544313
C     3.3954857626     0.0838427797     1.8571299558
C     2.7008070209     -2.275433004     1.2634121417
C     0.5616710836     -2.5697988186     2.5059322829
C     1.4011553212     -2.9399345391     1.3796714054
C     -1.5498969998     -1.2100164298     2.9190948619
C     -0.8696741904     -2.3466063614     2.2851325111
C     -2.4931797316     -0.4320318714     2.1324190109
C     -1.4778295743     1.6234186613     3.0539606757
C     -0.4455459063     2.5578588448     2.5664307455
C     -2.3695588457     1.0208240622     2.1423187098
C     -0.4836627183     3.0313634286     1.2797358824
C     1.9349220957     2.3593679842     1.0285821056
C     0.7920777277     3.1166430157     0.5466945669
C     3.4131824521     0.4242564736     0.5030566094
C     2.7318004731     1.6360330396     0.0508222077
C     3.2738230996     -2.0501780273     0.0031254451
C     3.6035738074     -0.6652465824     -0.4057074054
C     2.8105910757     -2.7357337164     -1.1334261157
C     0.7898053085     -3.4045101238     0.1409865716
C     1.4987459858     -3.321464162     -1.1005837305
C     -1.4235611315     -2.8292634676     1.0893953008
C     -0.6215637034     -3.3892755499     0.0401221976
C     -3.1238043587     -1.0329121153     0.9851347231
C     -2.620881008     -2.2734114265     0.5071822756
C     -3.7996166969     -0.1915637291     0.042723205
C     -2.6903557149     1.8163439876     0.9677698172
C     -1.7593008779     2.888284416     0.5513820637
C     -3.5543259894     1.2657752439     0.0211504509
C     -1.8062145472     3.3426979756     -0.7663639633
C     0.7088950615     3.421019918     -0.8114338436
C     -0.5671702834     3.7109162896     -1.413647161
C     2.4496915152     1.7655811299     -1.3738867986
C     1.5273597225     2.748207202     -1.7837377167
C     3.2950277145     -0.5585761933     -1.7759615355
C     2.8982230511     -1.8669640543     -2.2492553321
C     2.6680291118     0.6267289     -2.288272962
C     0.8161967286     -2.9422469332     -2.3147994031
C     1.7028923891     -2.0084362307     -2.9995480249
C     -1.3100261427     -3.1582791379     -1.2078799393
C     -2.5828119847     -2.562121537     -0.9002666658
C     -0.5896261346     -2.7666890683     -2.3687889682
C     -3.9303506492     -0.6013077809     -1.2883994222
C     -3.1935405281     -1.6946377667     -1.8049922473
C     -3.547217326     1.7143407134     -1.3528023126
C     -2.6427066242     2.7007369462     -1.7631547268
C     -3.7171341414     0.5595112946     -2.1580996209
C     -0.5838431155     3.1947617253     -2.7138026037
C     0.6906583958     2.5868551076     -2.9700482827
C     -1.830768775     2.4836703914     -2.9320115573
C     1.7620412541     0.4400097164     -3.3678529545
C     1.1845525459     -0.8767821345     -3.6082329899
C     0.7232432744     1.3836809934     -3.6461093263
C     -1.1515057761     -1.6839053644     -3.2160006559
C     -2.4445942435     -1.206481419     -2.9572565246
C     -2.7852784377     0.2171098664     -3.1481781565
C     -1.7972806416     1.1895408942     -3.5501259941
C     -0.232699501     -0.7294720795     -3.8056243206
C     -0.5244541666     0.6616094203     -3.9259242392


