70

 C     1.4954948141     0.0562171675     5.0690320387
C     0.714637319     -1.1817627773     5.137464435
C     1.5553611688     -2.2273091074     4.7163788951
C     2.6817492849     -0.2313358969     4.2438437906
C     2.7513257766     -1.5937564249     4.0433138103
C     2.671328251     0.6365053363     3.0817249573
C     0.7569477274     0.9803817412     4.3628864018
C     1.5368762104     1.5061879173     3.2531119801
C     -0.5420082246     -0.9802783031     4.4494261732
C     -0.5507831389     0.4107323517     4.0038168178
C     -1.0631097872     -1.9578881285     3.5445879938
C     1.0660069689     -3.1886657046     3.8473527281
C     -0.2623573679     -3.1499357372     3.3391042279
C     2.8545789432     -2.1543535542     2.7134420175
C     1.9645802342     -3.2596035663     2.6720192915
C     2.9016655762     0.134139164     1.7633562651
C     2.9319052524     -1.3107114167     1.5445072901
C     2.4812829656     0.977910306     0.676907761
C     0.87444841     2.0424953828     2.1678925291
C     1.5702320977     2.0565531988     0.9151411335
C     -1.1926765273     0.845407546     2.8436633812
C     -0.579159237     1.9317018454     2.0803303966
C     -1.920742878     -1.4849838821     2.4344857862
C     -2.0489843362     -0.0763842232     2.1031995654
C     -2.1499379859     -2.3635048045     1.3469911781
C     -0.1717032265     -3.6614747621     1.9854836863
C     1.2206493468     -3.5742224769     1.5338321381
C     -1.1537751451     -3.4036764743     1.0867318272
C     2.3855092     -1.7972355038     0.2872440256
C     1.4983763138     -2.9453286524     0.2866120546
C     2.5176500369     0.4974626828     -0.6825519376
C     2.3414732188     -0.9143001615     -0.8678091112
C     2.2615769594     1.4409063251     -1.7493516025
C     0.991036456     2.7946595175     -0.1538805321
C     1.6035955112     2.7182262063     -1.4592572619
C     -1.1874225208     2.4153609968     0.9296514947
C     -0.3846373734     3.1945421006     -0.0096685603
C     -2.6070776973     0.3577194318     0.8410384489
C     -2.367573719     1.7206635649     0.3932893862
C     -2.6654666726     -1.9412784764     0.0921774256
C     -2.9911255519     -0.5988374326     -0.1806371924
C     -0.848663695     -3.3396566395     -0.3102233799
C     0.4726623957     -3.0451548869     -0.7488916375
C     -1.9612831427     -2.6910624691     -0.9425208735
C     1.6847882892     -1.3501403111     -2.0897003817
C     0.6283227022     -2.3447800889     -1.9942792761
C     2.1183072277     0.9004819639     -3.0564243598
C     1.6627553455     -0.4552747076     -3.1782438466
C     1.4689768881     1.6719962581     -4.0849515481
C     0.9757562178     3.4538267971     -2.5116669042
C     0.9561088386     2.9151796269     -3.8490723976
C     -1.0341408072     3.7778210329     -1.1190628445
C     -0.3167767236     4.0202409252     -2.2974180855
C     -2.8758347813     2.1457195542     -0.847777132
C     -2.3649641748     3.3028574674     -1.4901684235
C     -3.1105419182     -0.1907646158     -1.5953204225
C     -3.1931966827     1.1805766904     -1.897749835
C     -1.8188708873     -2.194221684     -2.2013144711
C     -0.5240286854     -2.1696001697     -2.8257367177
C     -2.5571930199     -1.0172865302     -2.6196016404
C     0.558113808     -0.4496893539     -4.1573515904
C     0.4152266972     0.8383465318     -4.6975030879
C     -0.5951996057     -1.1613129174     -3.8263108307
C     -1.8769415645     -0.4459616254     -3.7376210597
C     -0.4598154353     2.9217887086     -4.3439583147
C     -1.2053663192     3.6396377391     -3.4416606399
C     -2.4148381697     3.1225377141     -2.8988798763
C     -2.7768120217     1.741125113     -3.1591755357
C     -0.8154353193     1.5580328854     -4.695542501
C     -1.9808621201     0.9437916753     -4.068757531


