70

 C     1.1859951637     -0.0942976401     4.6190433459
C     2.3013502998     -0.4278925281     3.9107297008
C     2.1567249493     -1.7982821359     3.3617497436
C     0.2990037757     -1.2754236141     4.5903071255
C     0.8458270063     -2.2574202561     3.6389537396
C     -0.9759987171     -0.8187969559     4.4527853353
C     0.3881928899     1.0941266985     4.2581001509
C     -0.960209816     0.6597204179     4.3317499492
C     0.7912506209     1.9309478432     3.1773667771
C     2.7968287795     0.4170313784     2.8733038984
C     2.1145584835     1.6565011135     2.5836573624
C     2.6590431293     -1.7706767707     2.065358315
C     3.1905165774     -0.4271476978     1.7898386328
C     2.0042954446     -2.4618453665     1.0233016148
C     0.044417813     -2.7647060258     2.5781014248
C     0.6898602077     -3.0154839645     1.2874482551
C     -1.8593052545     -1.3413339589     3.4606141344
C     -1.3981629425     -2.394032069     2.5641889185
C     -1.901045746     1.0069638906     3.3742776498
C     -2.5793936414     -0.2385113266     2.9290268694
C     -0.2456866599     2.506138071     2.2975582029
C     -1.6027611296     2.0195232568     2.4163966967
C     0.130206723     3.142320572     1.0261606039
C     2.3940164967     2.1818616428     1.3274407396
C     1.4877297     3.0802615201     0.6399655139
C     3.2904702894     0.0501517711     0.4677912627
C     3.0984342206     1.4428520641     0.3132742387
C     2.4229306691     -2.1312866246     -0.3395636209
C     3.033877222     -0.8402296701     -0.6532650496
C     1.7759837184     -2.8288436294     -1.3690201226
C     -0.1378827061     -3.3501381453     0.127564022
C     0.4364741504     -3.3751937272     -1.1495906178
C     -2.1211477117     -2.5178379748     1.3780772779
C     -1.5484062283     -3.1040597053     0.1863344821
C     -3.1992549953     -0.3035920161     1.6639767297
C     -3.1054470553     -1.5446213145     0.9556018862
C     -2.4684395564     2.0475562945     1.2722142441
C     -3.2942101985     0.8918915032     0.9192077486
C     -0.8546509586     3.3319753106     -0.0623856352
C     -2.1427664938     2.720686028     0.0917905245
C     -0.4269349291     3.551906829     -1.3902567787
C     1.881772258     3.1209514077     -0.7326671613
C     2.7891704328     2.0093866383     -0.9630698211
C     0.9736736582     3.4814689693     -1.718105772
C     2.8717183309     -0.259238296     -1.9769479198
C     2.7224997016     1.2027990548     -2.1224405702
C     1.836872657     -2.35644047     -2.6877471971
C     2.3086322895     -1.0738655459     -3.0032287623
C     -0.3430186767     -3.114005832     -2.3524419392
C     0.5371000664     -2.5712934002     -3.3197399471
C     -2.2532453898     -2.6161621438     -0.9387194754
C     -3.1596410172     -1.5701810117     -0.4596700514
C     -1.6613733276     -2.5618278759     -2.2303499119
C     -3.4306203912     0.864707474     -0.498476674
C     -2.7962122333     2.0377948621     -1.0213942757
C     -3.3525694524     -0.3757822354     -1.2185466805
C     -1.1521107969     2.9611626317     -2.5386778201
C     -2.2648312583     2.0730751264     -2.3221361582
C     1.1140601174     2.8716079642     -2.9923319609
C     1.9119181553     1.7232812667     -3.1988741502
C     -0.2104244036     2.6334242687     -3.522596957
C     1.362878115     -0.5268904067     -3.9976867605
C     0.2216943279     -1.450270558     -4.0996783004
C     1.1605959421     0.8239869803     -4.0710425728
C     -0.2084993075     1.3638687082     -4.1931961923
C     -2.0189005212     -1.4635871545     -3.0770392371
C     -2.8189563217     -0.3455540102     -2.5421054621
C     -2.3499911466     0.8668906741     -3.1172672181
C     -1.0918924874     -0.9198063752     -4.0092444415
C     -1.2965829309     0.5197361709     -4.063751882


