70

 C     1.2889222509     -0.1812119619     4.4334931263
C     2.5361983101     -0.5426708254     3.9917230804
C     2.4601422969     -1.9501027555     3.5100907215
C     0.4099591064     -1.3606431739     4.3771963161
C     1.1344491407     -2.4271938835     3.7204851771
C     -0.8181701732     -0.9521240843     3.8771905165
C     0.599482146     0.9303418255     3.8201554083
C     -0.7420118353     0.5003831389     3.5858289851
C     1.2507895059     1.7866363877     2.8861611502
C     3.2303463473     0.2537417403     3.0431855108
C     2.6634574154     1.5002508971     2.5862631327
C     3.0554185218     -1.9639276988     2.2430344464
C     3.7436892133     -0.6857230646     2.0630960486
C     2.3763798707     -2.5550319298     1.1017358065
C     0.5140738254     -3.1225272799     2.6680833506
C     1.1652149085     -3.2121421102     1.3782691879
C     -1.5518731844     -1.800606695     2.9774767125
C     -0.8821287074     -2.908008069     2.3901815334
C     -2.5396429099     -1.1607186347     2.1864151973
C     -1.5287590327     1.0746257151     2.5815657159
C     -2.5914903265     0.2688511459     2.0568179836
C     0.4111341918     2.4638728982     1.8880248439
C     -0.9952094092     2.1371644828     1.7535407479
C     1.0646791855     3.0969569578     0.741317607
C     3.2024940992     1.9784632007     1.3553267329
C     2.4165270687     2.7936803651     0.4501873404
C     4.0416544995     -0.2549012811     0.7926145728
C     4.013496862     1.138111575     0.5591971698
C     2.5491291185     -1.9640994669     -0.2450627622
C     3.4590459779     -0.9102179027     -0.3893883245
C     1.511213565     -2.1103795565     -1.280765142
C     0.1300647714     -3.3022616977     0.357714468
C     -1.1294889881     -3.2030008629     0.9865183865
C     0.3089064978     -2.8442887885     -0.9790795815
C     -3.0453665546     -1.7360807541     0.9721372851
C     -2.2549367273     -2.6893757247     0.2801255083
C     -3.2531642688     0.5873342079     0.8397783703
C     -3.6675754035     -0.6753704231     0.2342935661
C     -1.7662168883     2.5252525005     0.5520706613
C     -2.9069956831     1.7020784611     0.054598493
C     0.2879019233     3.5249779413     -0.3539941694
C     -1.1588197827     3.3774925606     -0.3793871441
C     0.7286299834     3.363440537     -1.7174730746
C     2.7729724525     2.4607809694     -0.9211433372
C     3.6352630182     1.3548382303     -0.8204031385
C     3.2633128997     0.1315833768     -1.3993640468
C     1.8345191995     2.5077462085     -1.9708434168
C     1.4680186396     -1.1713556043     -2.3968322043
C     2.2084881724     0.0840637341     -2.3455667003
C     1.6012851983     1.321563182     -2.7929073334
C     0.3948643982     -1.2389116288     -3.2868776922
C     -0.8879006613     -2.7289383468     -1.8059377282
C     -2.2015820451     -2.6494200696     -1.1712479077
C     -0.7193428461     -2.1194664626     -3.0775420387
C     -3.8351490299     -0.7856629686     -1.1116189187
C     -3.2259520619     -1.8958065403     -1.8341204111
C     -3.2677449465     1.6627134368     -1.3702243623
C     -3.7785284877     0.4227283335     -1.9385033731
C     -1.5775710311     3.3941029718     -1.7444508036
C     -0.4097247873     3.3206862056     -2.5460327664
C     -2.5404143042     2.4866734932     -2.271466724
C     0.3875143384     1.2561787335     -3.612675539
C     -0.0824062443     -0.0464944232     -3.9964303775
C     -0.5919738691     2.2949436969     -3.5266306075
C     -2.011138898     1.9620317119     -3.5248192166
C     -1.8248080206     -1.5560125743     -3.7850797324
C     -3.0479415724     -1.4216714375     -3.1509710481
C     -3.4328079099     0.0147864676     -3.2304289709
C     -1.4287413533     -0.2613159854     -4.3420412432
C     -2.4240609565     0.7085874056     -3.9765850243


