70

 C     1.498662748     -0.3133651958     5.2662053234
C     0.6845101905     -1.4141263532     5.1591964565
C     1.2656329501     -2.388932995     4.2328027055
C     2.6527264634     -0.525288559     4.3643129566
C     2.542271214     -1.8587994006     3.7890936571
C     2.6783083926     0.5633417941     3.4856700145
C     0.7508528196     0.8497727268     4.8233038049
C     1.4923016196     1.4184074644     3.7748638445
C     -0.6341160281     -1.0131202528     4.6694983293
C     -0.6172862924     0.4116717582     4.4875037403
C     0.2773952513     -2.6748964042     3.2735834712
C     -0.9163029606     -1.8254674435     3.5540209275
C     0.6145135434     -2.9050547279     1.8995557702
C     2.8686759984     -2.0129778273     2.4474850698
C     1.9727262581     -2.717334414     1.5512873553
C     3.0876721038     0.426752907     2.1118557152
C     3.3479891919     -0.8875428537     1.6605605543
C     2.6712132717     1.4234527831     1.1314113743
C     0.8588870612     2.1025106578     2.7011597992
C     1.5744601634     2.3195308922     1.457883063
C     -1.2448489988     0.9530287592     3.3616243651
C     -0.584269963     2.0585558027     2.6624307489
C     -1.6687592569     -1.3208349937     2.4703746963
C     -2.0046674815     0.0730389562     2.480673611
C     -0.3983037385     -2.723898134     0.8621734953
C     -1.5858557055     -1.9884208034     1.1629691335
C     -0.0066655689     -2.7825309363     -0.5351532857
C     2.2732922076     -2.312073099     0.2049240714
C     3.1430532432     -1.1879228621     0.263569954
C     1.3714494341     -2.4718685387     -0.8533478226
C     2.9611463806     1.1903850247     -0.2652720269
C     3.0776217879     -0.1957094176     -0.7241290843
C     2.5039575034     2.1225602236     -1.2259966697
C     0.877143029     2.9974559468     0.3747575087
C     1.4054968965     2.9872924165     -0.9262786638
C     -1.2314372592     2.5752748635     1.5392406032
C     -0.5371021902     3.1668830359     0.454397777
C     -2.6591724102     0.6185464691     1.3180202459
C     -2.4285893108     1.9672764463     1.0041210124
C     -2.4584046277     -1.5492172471     0.1013646711
C     -3.1166016938     -0.2654299849     0.2577084009
C     -0.9929131027     -2.6534161268     -1.5564893126
C     -2.3115204581     -2.1277542604     -1.2231899204
C     -0.5040779472     -2.4893950962     -2.907576846
C     1.69807946     -1.7774270358     -2.0743712983
C     2.5474719674     -0.598931127     -2.0137752983
C     0.788930877     -1.9407546733     -3.1410314687
C     2.3910158832     1.7628664519     -2.5967712805
C     2.3344029116     0.4209253496     -2.9926036089
C     0.5537326881     3.0787151298     -2.1300285575
C     1.2105607074     2.4046545391     -3.1568333043
C     -1.3890643897     3.1339705094     -0.7297233798
C     -2.5864344686     2.4505362462     -0.3389393064
C     -0.8781464863     2.9990112059     -2.0439276081
C     -3.6677376593     0.3445166167     -0.8993971369
C     -3.2845804328     1.7129142712     -1.2616055837
C     -3.1341038556     -1.6129218194     -2.2873074287
C     -3.7885122285     -0.380758764     -2.0883071895
C     -1.3749844617     -1.9846642541     -3.9387538863
C     -2.6546589504     -1.5872219719     -3.6607138256
C     0.6593416104     -0.9255412486     -4.2010145315
C     1.3078462522     0.2886598897     -4.0304275037
C     0.5265227135     1.5053723248     -4.0331533824
C     -0.6633977391     -0.9288661913     -4.6749282227
C     -1.6378077721     2.2371014138     -3.0646307571
C     -2.9188325726     1.7355666552     -2.6602795894
C     -3.4346155402     0.5181847291     -3.2170215264
C     -2.7750479231     -0.2018841566     -4.1751538839
C     -0.9083300112     1.4782740416     -4.1065941924
C     -1.472715339     0.2473408973     -4.6248768443


