70

 C     1.5459364518     0.0733775915     4.7194188814
C     0.7463409542     -1.1040716128     4.5577935871
C     1.4098887225     -2.032857268     3.6996002708
C     2.6399612442     -0.0446790754     3.8278653726
C     2.6168093962     -1.3524356016     3.2328382577
C     2.6291865692     1.0753841819     2.9060932855
C     0.7311435777     1.1390427564     4.1986782141
C     1.4281769614     1.8402921937     3.1643194741
C     -0.6144570685     -0.7286721895     4.24384989
C     -0.6257466349     0.7099840791     3.9927602149
C     -1.3630225325     -1.5412806017     3.4101226569
C     0.6490303612     -2.8440857191     2.7944803139
C     -0.7722059901     -2.6768322349     2.7515018307
C     1.2919063218     -3.2131686696     1.5707848137
C     3.092985693     -1.5301091128     1.9110811003
C     2.5267576366     -2.6188130217     1.174117998
C     3.1154307711     0.9592599383     1.5929029184
C     3.5604790028     -0.3685283234     1.1527543366
C     2.6251837362     1.935565847     0.6136462569
C     0.7078958468     2.4411286317     2.1155925591
C     1.3826912927     2.6583518025     0.8485325879
C     -1.3646401743     1.2529920205     2.9251389195
C     -0.7387964511     2.3039848132     2.1354156681
C     -2.33592968     -0.959151766     2.5020273476
C     -2.3775309718     0.4220591167     2.2494518252
C     -1.5086806842     -2.8795529513     1.5280012671
C     -2.542345493     -1.8883431175     1.4188321287
C     0.5339881038     -3.5182046684     0.3658505596
C     -0.8810965857     -3.3688248859     0.343303921
C     2.5674760389     -2.6550483905     -0.2737922519
C     1.3102409048     -3.1727598687     -0.7801251288
C     3.772194581     -0.5358325028     -0.2319414822
C     3.2191444663     -1.6862369366     -0.9721591017
C     3.0504970337     1.7688010003     -0.7353575164
C     3.694201477     0.5532450421     -1.1007004731
C     2.2438039394     2.1848674283     -1.8436993342
C     0.6156563698     3.1603090045     -0.2774550469
C     1.0688520921     2.9331748125     -1.6538535211
C     -1.4351876288     2.7632183389     1.0223567069
C     -0.7825316743     3.3556925675     -0.1037589967
C     -3.005074422     0.8741867245     1.0086941551
C     -2.6730833345     2.167804627     0.5602529427
C     -3.0839152958     -1.4883030882     0.1764462822
C     -3.4869830335     -0.0856871939     0.009686914
C     -1.4718173428     -3.0329163281     -0.8935671588
C     -2.6620412801     -2.2158898098     -0.9686397988
C     0.7250537979     -2.6606168781     -1.9762166255
C     -0.6856208549     -2.7324157617     -2.0538539355
C     2.6938162543     -1.2147584086     -2.2620630348
C     3.1189610426     0.1256578829     -2.3681121904
C     2.2664017986     1.1171499892     -2.84664575
C     1.4081940595     -1.5999565824     -2.7372386675
C     1.0918744844     0.7492007894     -3.5505512897
C     0.6195863637     -0.6244885833     -3.4965755891
C     0.1299250234     2.9072822194     -2.720469904
C     0.1568160439     1.8228042989     -3.7079824896
C     -1.7158797109     3.3618638522     -1.2083746106
C     -2.8962009829     2.6075093399     -0.7867566317
C     -1.2559746521     3.243610617     -2.5209575232
C     -3.7670707789     0.3755734307     -1.2939324507
C     -3.54711126     1.7547344143     -1.6841164955
C     -2.7158459818     -1.6363970839     -2.2677750683
C     -1.4431623035     -1.8602667827     -2.9136958726
C     -0.8273732806     -0.8383203916     -3.6861851281
C     -3.401977464     -0.4360936341     -2.4661034298
C     -1.1407597307     1.5838616491     -4.167835917
C     -2.0392142025     2.5000925996     -3.4815011331
C     -3.1469060235     1.7718620792     -3.0726476702
C     -1.6807460043     0.2557630879     -4.0939077095
C     -2.997558896     0.395910277     -3.5256445212


