70

 C     1.3743317331     -0.1173580122     4.0283919793
C     2.4533211285     -0.2991737978     3.1401004019
C     2.2417988998     -1.597589215     2.5208982179
C     0.5357643365     -1.2962138811     4.0387650381
C     1.0217558822     -2.1863441021     3.059687808
C     -0.815023109     -0.8531145071     4.0066227556
C     0.5569538618     1.0496847607     3.9806006918
C     -0.8289407712     0.6038536448     3.8577773968
C     1.0075636744     2.1527424173     3.2641270693
C     2.9098827526     0.8159751142     2.365171941
C     2.2378142044     2.0711559089     2.4893519596
C     3.4862597068     0.5123646295     1.1124497729
C     2.6195028085     -1.8562539952     1.1967899535
C     3.4285494206     -0.8387714633     0.5764807055
C     1.7930959862     -2.7419333685     0.3511619278
C     0.1203827255     -2.9166316962     2.2138269193
C     0.4854043102     -3.2087779484     0.8306015944
C     -1.730448955     -1.6192486922     3.3354384761
C     -1.2676716398     -2.7727912502     2.5605238349
C     -2.7757187636     -0.9698090845     2.5636829261
C     -1.7121855572     1.2390575294     2.9536780818
C     -2.7015544408     0.4037319119     2.2327274491
C     0.0687355906     2.9632013497     2.5586908747
C     -1.2915040159     2.5205340235     2.3825829882
C     2.0802361904     2.9276377022     1.3525059773
C     0.7910705684     3.5660560435     1.460853104
C     3.4282077838     1.4243133134     0.0110840531
C     2.625661382     2.5905390549     0.0664001827
C     3.5522930919     -0.771115785     -0.8323927991
C     3.5355321886     0.6300474663     -1.2074501636
C     2.0328702824     -2.6998453341     -1.0394463448
C     2.9222814434     -1.7266673875     -1.6317449984
C     0.995888061     -2.9925882915     -2.0121935694
C     -0.5630318394     -3.4864067763     -0.1523463112
C     -0.3094047018     -3.3285316247     -1.5861330016
C     -2.2415613113     -3.0226673383     1.5833961637
C     -3.1810144079     -1.9008515962     1.5780588641
C     -1.9289332166     -3.3720519381     0.2699555112
C     -3.4827851796     -1.5673303407     0.2554037736
C     -2.8774376805     -2.6182992526     -0.5619574457
C     -3.1369655548     0.7885553791     0.877565436
C     -3.4458677707     -0.2067326871     -0.1606590845
C     -1.9622477579     2.981614427     1.2195680338
C     -2.7889836104     2.0707928039     0.4337683985
C     0.1042050622     3.971179204     0.3224139611
C     -1.2969673855     3.8288159574     0.2967805825
C     1.8700065385     2.9707260188     -1.1476274771
C     0.6399966551     3.6534312249     -1.0103904556
C     2.8991007583     1.0166780924     -2.3643288272
C     2.0067696314     2.1742769391     -2.3304209461
C     2.382580789     -1.3387922549     -2.9087875456
C     1.2375646115     -2.1774143343     -3.1845708565
C     2.3479380242     0.0196011061     -3.2566861333
C     0.1572223543     -1.6602695544     -3.9118548343
C     -1.3902057624     -2.910436565     -2.4596858099
C     -2.6173794835     -2.3807475107     -1.8635125572
C     -1.1379922392     -2.1115721679     -3.5772333556
C     -3.145311003     0.0542820684     -1.5739228788
C     -2.8967066472     -1.0674277435     -2.4238857259
C     -2.0402242684     -0.9445813006     -3.5331016282
C     -2.5706545747     2.3483355776     -0.982511845
C     -1.6484305222     3.396340448     -1.0379866756
C     -0.4813839652     3.3198418254     -1.8539194486
C     -2.5552076309     1.3165017969     -1.9661772881
C     0.9072467305     1.883970847     -3.1868751245
C     1.136875417     0.5872141924     -3.8069874555
C     0.0671755423     -0.2162381646     -4.1353325408
C     -1.2918693228     0.2125640271     -3.7841628381
C     -0.4145608574     2.3194473823     -2.8519919945
C     -1.5336661921     1.3895147536     -3.0116068049


