70

 C     1.3799461197     0.3027242324     4.6131444193
C     2.5680175007     0.0785673861     3.9537133301
C     2.5372816329     -1.3133467187     3.466290901
C     0.5258650443     -0.9228225879     4.5029459438
C     1.2082179934     -1.8476956145     3.6881878398
C     -0.7858504083     -0.4895152855     4.1640236754
C     0.5847623731     1.4202764454     4.2778232375
C     -0.7786686352     0.9356537297     4.1053600878
C     0.9008421708     2.2188980244     3.1511154153
C     2.9466918245     0.9054024638     2.8401556812
C     2.0989846712     1.9791664497     2.3835960966
C     3.081767207     -1.3517608577     2.2095197838
C     3.4819065414     0.0304332468     1.8440666343
C     2.5184528747     -2.2049618556     1.1851158283
C     0.5079239757     -2.5157290766     2.6107263623
C     1.1879270262     -2.7729237486     1.3606970436
C     -1.5613043304     -1.2119704617     3.2141044674
C     -0.9411765123     -2.3766211373     2.5916350032
C     -2.5500444374     -0.4723055357     2.4399634831
C     -1.372010096     1.5983525574     3.0137718687
C     -0.3590744311     2.4467730181     2.436194953
C     -2.3196665002     0.9495231374     2.1915697236
C     -0.4081841133     2.7693404042     1.0952792979
C     2.088647561     2.3059623128     0.9665859929
C     0.8850745047     2.9345623057     0.4026454289
C     3.5916172172     0.3954759551     0.5119482625
C     2.9884885291     1.6413259453     0.0468378296
C     2.9897676035     -1.9642978844     -0.0936919131
C     3.7006263992     -0.7106745214     -0.4125409763
C     2.268443032     -2.3560903385     -1.2907022194
C     0.4165775736     -3.0744594808     0.138781462
C     0.9174205655     -2.7412058166     -1.2165880014
C     -1.6191330491     -2.9598367675     1.5075428665
C     -0.9463243807     -3.2921508153     0.2769800592
C     -3.2867971115     -1.185328655     1.4733414624
C     -2.9031681869     -2.4971498024     1.1460528537
C     -3.8135215766     -0.5460785649     0.2653935292
C     -2.5724527224     1.5135940517     0.882898483
C     -1.630305731     2.472311338     0.3450847181
C     -3.4675469418     0.7955467294     -0.0332900646
C     -1.6431940771     2.813887016     -1.0740825629
C     0.8420643045     3.2344549853     -0.943919401
C     -0.4230401601     3.3034977063     -1.6700639034
C     2.849613829     1.8458602871     -1.3923865663
C     1.8819629672     2.7827738582     -1.85168654
C     3.569027386     -0.4911310029     -1.7633905692
C     2.7209398526     -1.5314698651     -2.3384169483
C     3.149965097     0.7653478138     -2.2942796357
C     1.8476039326     -0.9447361429     -3.2516307022
C     2.2516136631     0.464828019     -3.3909442262
C     0.0152157223     -2.3050500374     -2.2879493574
C     0.4741169809     -1.3332174089     -3.2758903792
C     -1.8758922222     -3.0580508178     -0.8419251617
C     -3.0969799377     -2.6690284573     -0.2790501662
C     -3.8055249103     -1.5464401879     -0.7908889836
C     -1.424392332     -2.4752654739     -2.0837122897
C     -3.5469133304     -1.1728186179     -2.1033730197
C     -2.3439660013     -1.6541282361     -2.7765538685
C     -3.4969483303     1.1812328937     -1.4123039754
C     -2.5862139244     2.2047568716     -1.9319965918
C     -3.6498204207     0.2047851644     -2.4147000889
C     -0.4673426736     -0.3712444852     -3.8725953034
C     -1.8688551093     -0.5753608984     -3.6495320475
C     -2.2091823889     1.8226742367     -3.2818876641
C     -2.733725328     0.5246573552     -3.4913936435
C     -0.1238156782     3.0055146136     -3.0109027191
C     1.2727147534     2.6429007451     -3.1197419291
C     1.3220180107     1.3975510744     -3.8023335547
C     -0.9148658157     2.0729251148     -3.7396592521
C     -0.0462046464     0.9733296995     -4.1190898094


