70

 C     1.3642649483     -0.0346365668     4.288559553
C     2.5659435971     -0.1905467717     3.5334106234
C     2.4735454632     -1.4445510591     2.8283793461
C     0.5382937379     -1.2000770652     4.0844835087
C     1.1633562286     -2.0405809217     3.1484720405
C     -0.79112722     -0.779425685     3.8363213884
C     0.534264249     1.112955272     4.1255793332
C     -0.8138866874     0.6810278395     3.8777679253
C     1.0439902349     2.2277442451     3.4145686127
C     3.0897049905     0.9433395257     2.8658588881
C     2.37283203     2.1746492463     2.9452658683
C     3.5950138824     0.8144052964     1.5120058233
C     3.0362225418     -1.6057882893     1.5439678496
C     3.6467157198     -0.438407122     0.8705629662
C     2.451432281     -2.6066068456     0.7166303285
C     0.3921741304     -2.7010471433     2.1366569605
C     1.1063336827     -3.1011946302     0.9893582606
C     -1.6196699528     -1.4819603576     2.9245465802
C     -1.0358754134     -2.4576775741     2.0061534243
C     -2.7763764801     -0.7643835134     2.5249698088
C     -1.6661339764     1.3938383078     2.9876777685
C     -2.7797698101     0.6897206904     2.5076092283
C     0.2245329814     2.8595188455     2.3766104883
C     -1.0976010117     2.4717269458     2.136084644
C     2.4104153946     2.7879225379     1.6260558953
C     3.1672120631     1.9922871191     0.7494410455
C     1.1188716554     3.1947160059     1.2657951754
C     2.7843687023     1.9003611283     -0.6146790372
C     3.6719047292     -0.4199103988     -0.5588716805
C     3.245294186     0.7404251869     -1.2998034444
C     2.6489808246     -2.6265838519     -0.6937110328
C     3.2970807939     -1.5627751515     -1.3350920964
C     0.4636249175     -3.3570231269     -0.2563872829
C     1.4522310892     -3.1985236624     -1.3011906661
C     -1.6799234277     -2.6812761894     0.7116020325
C     -0.9119417243     -3.0598595421     -0.4616837697
C     -3.5212426214     -1.1949334677     1.4218957175
C     -2.9439378421     -2.0658305814     0.4613632616
C     -3.4828183536     1.1009070822     1.321289614
C     -4.080852427     -0.0524581559     0.7488434179
C     -1.6635495188     2.7199548305     0.8019426601
C     -2.9458185445     2.1235702381     0.4578942997
C     0.677617392     3.102127809     -0.0743322547
C     1.5650033566     2.5377472417     -1.0780449539
C     -0.7576873817     3.1121188368     -0.2728251814
C     1.0263054005     2.160034143     -2.3859197708
C     2.7014066575     0.330456766     -2.5603573092
C     2.8064328813     -1.1117317643     -2.6236097407
C     1.6159512085     1.0378208429     -3.1514832979
C     1.0611227186     -2.8610875696     -2.5664620934
C     1.8265616725     -1.8324310779     -3.3012729234
C     -1.3329747841     -2.6606825493     -1.8114130294
C     -0.3522753294     -2.6618898033     -2.8462733672
C     -3.2948597071     -1.561449369     -0.8527500208
C     -4.026429824     -0.2956612121     -0.6458418559
C     -2.4906097055     -1.7734604656     -1.9863801843
C     -3.3252824498     2.0315345147     -0.9193291633
C     -3.8160817306     0.7652008315     -1.4950686641
C     -1.1876822822     3.0245914915     -1.6141389287
C     -0.2960255563     2.531582096     -2.663106165
C     -2.4988631484     2.595332577     -1.9033681421
C     -2.4974434912     -0.7262520242     -3.02974214
C     -3.135135059     0.5319501052     -2.7481341014
C     -1.1241093727     1.7432786978     -3.5768566151
C     -2.4438327294     1.7271055703     -3.0596724707
C     0.7808158451     0.28402159     -4.0435089521
C     0.9109493993     -1.1277810852     -4.0990740265
C     -0.4149860546     -1.6813382579     -3.8688992299
C     -0.6406091286     0.5776345566     -4.1306578947
C     -1.3853587907     -0.6617851119     -3.9176828516


