70

 C     1.3959740689     0.1257225479     4.7821731827
C     0.6213281729     -1.0773100343     4.6128727924
C     1.3372240783     -1.9779795359     3.7772037195
C     2.6185363885     -0.0045581746     4.0594713963
C     2.6538315869     -1.3461370907     3.5360669264
C     2.6998420015     1.0615616769     3.1077645626
C     0.638957012     1.1764342594     4.211959135
C     1.4150232838     1.7731576054     3.164788486
C     -0.7183310911     -0.6974883516     4.2656475862
C     -0.6880977773     0.7160387972     3.9011685833
C     -1.4287804567     -1.5471357056     3.4510909206
C     0.6667772113     -2.6680524951     2.6932346404
C     -0.7455144725     -2.5963679707     2.6849706781
C     1.312567866     -2.8714268555     1.3910688674
C     3.2758474332     -1.5754704235     2.337248165
C     2.688327493     -2.4865281243     1.3248328092
C     3.3347578364     0.855133869     1.8618464524
C     3.8509318084     -0.4652904935     1.6016529768
C     2.8852452904     1.6462814389     0.727608725
C     0.795226884     2.2233997194     1.9893190485
C     1.6322222968     2.3810401748     0.8144520622
C     -1.3588802577     1.1677960642     2.7379374365
C     -0.6640784139     2.0457446262     1.8017954142
C     -2.455106392     -1.0225459108     2.6248416437
C     -2.4362121691     0.3411429043     2.2132669361
C     -1.4916449358     -2.8186449639     1.495817697
C     -2.6967194797     -2.0236748719     1.6182938183
C     0.5410036676     -2.9048013549     0.1399087813
C     -0.9022318214     -2.9509149123     0.2023664207
C     1.1394797121     -2.4466391457     -1.1266281352
C     3.2573587688     -2.1718173049     0.1000890082
C     3.9918663091     -0.9139614884     0.2605016014
C     2.5059214877     -2.0857230088     -1.0950350377
C     3.3197784905     1.2489241829     -0.5981957718
C     3.7419665415     -0.1109638732     -0.8247196805
C     2.9433732279     -0.9014691567     -1.7893430474
C     2.7648202978     1.8817909292     -1.6945621699
C     1.0275817996     2.9574384284     -0.355010197
C     1.8004655824     2.9301357773     -1.5535248764
C     -1.2633539081     2.3564748433     0.5359200515
C     -0.4392929515     3.0270737705     -0.4719728884
C     -3.0783475957     0.6871717884     0.9649851452
C     -2.5519849251     1.7480609354     0.1411675783
C     -3.435224024     -1.7294458273     0.5400826977
C     -3.8556821077     -0.3470548425     0.3209792606
C     -1.7233702375     -2.6665283164     -0.9801238184
C     -3.0951562699     -2.3046024945     -0.752686534
C     0.3270591322     -1.9102958608     -2.2238509061
C     -1.1042043073     -2.1831955616     -2.2227098544
C     2.1652135567     -0.2972329131     -2.7547690033
C     2.383096925     1.1311601931     -2.9095469509
C     0.8640861211     -0.8640410141     -3.090300471
C     1.1930174628     3.0958879764     -2.825600994
C     1.5229862829     1.9066677492     -3.653963749
C     -1.0000526143     3.2350437104     -1.7601536803
C     -0.151614465     3.2968227172     -2.9215493759
C     -3.0109160951     1.8439594442     -1.2524525948
C     -2.2038949906     2.5495536176     -2.166398064
C     -4.234666126     -0.2658706124     -1.0127815608
C     -3.817273051     -1.5439901356     -1.6849087343
C     -3.8574006681     0.8067272772     -1.8300445636
C     -1.9128065917     -1.5054090561     -3.1881445436
C     -3.2915658675     -1.2147568085     -2.906920022
C     -3.4905683942     0.2196525992     -3.1130288482
C     -0.0307357806     -0.0373622546     -3.9015803725
C     0.3009358287     1.3683910139     -4.158090293
C     -0.6993627033     2.3717928547     -3.9301237736
C     -1.9730133098     2.0157568616     -3.5187773853
C     -1.393878684     -0.3615636411     -3.9068577269
C     -2.4126690018     0.7043101917     -3.8200396025


