70

 C     1.311792896     -0.0529961264     4.3769819235
C     2.5294418873     -0.3609873503     3.7990646456
C     2.5041188112     -1.7678784384     3.3789506751
C     0.4522371147     -1.2421084675     4.3096884197
C     1.2134434069     -2.3076839265     3.7222147627
C     -0.7487064435     -0.8371209023     3.7111453658
C     0.5751549997     1.0930777225     3.9375723146
C     -0.7293212493     0.6203434547     3.5718275715
C     1.2070722488     2.089217697     3.1396172643
C     3.0351063271     0.4476751177     2.7250642621
C     2.4801798479     1.740277094     2.4831224949
C     2.927202418     -1.7995535048     2.0448331042
C     3.3025992681     -0.4416496191     1.6321033813
C     2.3352947191     -2.6805341758     1.0856463112
C     0.5840970267     -3.1247688749     2.8022386757
C     1.2673584631     -3.4848613959     1.5749868579
C     -1.4091674608     -1.6276121074     2.702174339
C     -0.7897888887     -2.8691527402     2.3944408614
C     -2.2375327448     -0.974603363     1.6835046424
C     -1.5004351603     1.2615262048     2.586210107
C     -2.3239875701     0.4823687219     1.6503617066
C     0.3223245976     2.9374854193     2.4421425166
C     -1.0413562633     2.5538614837     2.2083012282
C     0.7356339206     3.7118644938     1.2902987758
C     2.6949172687     2.2543720945     1.186133612
C     1.9122668843     3.3323316069     0.6443055609
C     3.1637220992     -0.0276136409     0.2840212577
C     3.0328798401     1.3731852762     0.0923228683
C     2.3539330114     -2.3114824248     -0.3465800099
C     2.6816960603     -0.9300798178     -0.754619859
C     1.6005339576     -3.1020883972     -1.218621375
C     0.2782777936     -3.9688264749     0.6596168764
C     -1.0055807009     -3.5048149285     1.1188107598
C     0.560630061     -3.9887011259     -0.6918125533
C     -2.6101914355     -1.7421310325     0.5020834472
C     -1.9704328657     -3.0320529307     0.2028847356
C     -3.1876593246     -1.0436238443     -0.5828003515
C     -2.8334135225     1.1695379955     0.4810693528
C     -3.3154547831     0.371950619     -0.5882698505
C     -1.5092130061     3.2062607377     1.014018961
C     -0.4297881281     4.0175549527     0.4986576004
C     -2.4381559686     2.5608511953     0.1631195849
C     -0.3140576516     4.1971527443     -0.8816935695
C     1.9177480616     3.2044146088     -0.8044473398
C     2.5196336187     1.9132483261     -1.1233423438
C     0.8912840719     3.7039431003     -1.5602574788
C     2.1363049517     -0.3773327191     -1.9772233268
C     2.024990013     1.0846481283     -2.1494470269
C     1.1233488997     -2.5968905918     -2.4901525034
C     1.3343857079     -1.2310658454     -2.8557585895
C     -0.5282355579     -3.9403728922     -1.5814282663
C     -1.7865167001     -3.434951835     -1.1695515502
C     -0.1191056078     -3.2311410344     -2.7797718667
C     -3.0198581756     -1.4897467763     -1.9698226955
C     -2.2753087261     -2.6070126927     -2.2614980294
C     -1.2088408112     -2.4950767259     -3.2701745718
C     -3.2654884108     0.8308003331     -1.9734910358
C     -2.9475020679     -0.309782805     -2.8111391672
C     -2.4508812556     3.0068646448     -1.2087721844
C     -1.4040654418     3.8310085021     -1.6890702616
C     -2.7932566227     2.083420947     -2.2832680374
C     0.4811886124     2.9816775874     -2.7597736322
C     1.0180603207     1.6717209593     -3.0516671096
C     -0.9011044367     3.226990217     -2.9273065499
C     -1.7877493414     2.217299514     -3.3406523731
C     0.3416671982     -0.6401620941     -3.6955323849
C     -0.9528030329     -1.2578628565     -3.8580613241
C     -1.9344039658     -0.2005711574     -3.7698532071
C     0.1642934201     0.794658027     -3.7653130751
C     -1.2454564832     1.063306089     -3.9083633744


