70

 C     1.0954180326     -0.0382619304     5.036978535
C     2.2761663535     -0.2152631265     4.3535417466
C     2.2241437185     -1.4952156717     3.627161492
C     0.2546647017     -1.2396461804     4.7099112807
C     0.9276248749     -2.0455604298     3.7039368734
C     -1.0108198118     -0.7943094887     4.4876461769
C     0.2947548449     1.1411399974     4.8180254213
C     -1.0570884355     0.6793246328     4.6385791683
C     0.7873052866     2.137800853     3.9215166686
C     2.7714114665     0.7626876664     3.4116196164
C     2.0387998973     1.9301841333     3.2122183618
C     2.8501993487     -1.326561978     2.3810073813
C     3.2387223214     0.0537946069     2.2340404704
C     2.3772715316     -2.0745667552     1.2662020416
C     0.2413269368     -2.4451324625     2.4825845752
C     1.0420709514     -2.6417902433     1.2767840069
C     -1.724719287     -1.159164561     3.2907660724
C     -1.1421555874     -2.034861145     2.3074909691
C     -1.8648844435     1.1546448099     3.6152318597
C     -2.4114772717     -0.0004552684     2.8619142545
C     -0.1103859834     2.7418269434     2.9694798213
C     -1.4573830211     2.2978947189     2.8376435436
C     1.89770861     2.4706727853     1.8460124047
C     0.6262743956     3.0719667049     1.7491922694
C     3.2255089159     0.6361792322     0.9388320325
C     2.5130134623     1.8790610632     0.6944283463
C     2.8946575236     -1.6459359502     0.0407920428
C     3.3140346341     -0.2800901288     -0.125471775
C     2.3824919571     -2.1253334306     -1.1980349974
C     0.4025285492     -2.8918711226     0.0052833668
C     1.1525861203     -2.8091613468     -1.2616766523
C     -1.7119576614     -2.0009330088     0.9841083916
C     -1.0238852174     -2.7021247541     -0.0840670427
C     -2.857127133     0.129567574     1.5348031098
C     -2.6637106225     -0.9720322979     0.6197362646
C     -2.0668704291     2.4482092659     1.5689957295
C     -2.9404263888     1.4409414925     0.9939037146
C     -0.0055008357     3.2332364499     0.4890184557
C     -1.4259488919     3.127607433     0.474810007
C     1.9647713517     2.1423304733     -0.6265889749
C     0.7365462011     2.8985139942     -0.7240595139
C     3.0131879482     0.0891609453     -1.4707784422
C     2.7088030943     -1.1404763988     -2.197430113
C     2.3372928459     1.2850520684     -1.7743015781
C     2.0617631356     -1.1271847265     -3.3871382287
C     0.4883175562     -2.859135252     -2.5728001174
C     1.0710218414     -2.1446586951     -3.6851349778
C     -1.6376388097     -2.7351581889     -1.3478293426
C     -0.9397265619     -2.9978936299     -2.5788073924
C     -3.0166506231     -0.7735226483     -0.7694269227
C     -2.7304733982     -1.8281569584     -1.664781487
C     -3.0001693164     1.6395002887     -0.40861883
C     -2.0976987312     2.7356283618     -0.714997816
C     -3.138593395     0.5750700588     -1.3214119526
C     -0.0049276377     2.8151803678     -1.9395209147
C     -1.4399475994     2.7415641324     -1.9237726541
C     1.5983326249     1.3103181026     -3.0484865427
C     1.6194163088     0.1567495182     -3.924497352
C     0.4341703637     2.1153097597     -3.1198840906
C     0.2431952513     -1.5759142613     -4.7093308308
C     0.5483818423     -0.1423618115     -4.7842195436
C     -1.7412845582     -2.4689368941     -3.6500084344
C     -2.7831827068     -1.663429194     -3.0627281543
C     -1.1437415065     -1.715047953     -4.6820578115
C     -2.7626872648     0.8020867446     -2.7304900215
C     -1.8677377709     1.8780951694     -2.9934809691
C     -0.7334959298     1.7051776005     -3.8806195269
C     -0.6909002746     0.5870058026     -4.7213237801
C     -2.697499619     -0.3346281429     -3.61891311
C     -1.7531880756     -0.3687077256     -4.6815065794


