70

 C     1.7172894342     0.0295971152     4.5523077292
C     0.9029793736     -1.1575000966     4.5533561658
C     1.3509527683     -1.9963441175     3.4955364253
C     2.597077301     -0.0123000814     3.4511864044
C     2.4163861459     -1.2658741054     2.7747897381
C     2.400410234     1.1891832275     2.6936187855
C     0.8796725359     1.1825316092     4.4481970246
C     1.3149812796     1.9561405622     3.3215034328
C     -0.4724935966     -0.7504000945     4.6049255303
C     -0.4814249869     0.7361242388     4.5148768645
C     -1.3988454738     -1.4762269326     3.862428333
C     0.4226553732     -2.7566674135     2.7462440789
C     -0.9678464147     -2.5811062172     3.0513702583
C     0.7911232754     -3.1577206657     1.388443831
C     2.5060876054     -1.3361016518     1.3779389383
C     1.8459477227     -2.4414946351     0.6848529503
C     2.5441004845     1.1685947526     1.3076993526
C     2.7761657296     -0.0984804962     0.6273061132
C     1.9111251871     2.2320381994     0.5429175664
C     0.3707884376     2.5775758324     2.4729869805
C     0.7483768155     2.8633529357     1.0987979391
C     -1.4268161732     1.3587973502     3.7010940277
C     -1.0258357027     2.3694682259     2.7598896428
C     -2.474880523     -0.8013510265     3.1141185347
C     -2.4863369697     0.5847294293     3.0509637154
C     -1.9386864023     -2.733766333     1.9902451396
C     -2.786016675     -1.5685968776     1.9366002586
C     -0.2272233297     -3.7718903084     0.6071829387
C     -1.6200215881     -3.3978463601     0.8433561434
C     -0.0792946392     -3.870805031     -0.7760574538
C     1.9246081414     -2.4719304542     -0.7527856706
C     0.9864801807     -3.2882373921     -1.464213029
C     2.8367523986     -0.1142005234     -0.7995683012
C     2.5351009813     -1.3585906321     -1.4850325963
C     2.2056146219     2.3170399378     -0.8534968363
C     2.8190846912     1.1688763076     -1.5308158385
C     1.4329236419     3.2397087272     -1.6179612189
C     -0.2673751137     3.3163312475     0.1679299616
C     0.1143081926     3.5793903134     -1.1427263653
C     -1.9603032514     2.3497607734     1.6724750287
C     -2.8345636893     1.2148800088     1.814713127
C     -1.6510542954     2.8970979512     0.4129250693
C     -3.1253671369     -0.9738192688     0.6776073737
C     -3.2022532639     0.4698820127     0.6566002456
C     -2.1954700924     -2.9732879338     -0.4258198864
C     -1.3238725832     -3.4222626947     -1.4294536129
C     -2.8023367763     -1.6870551246     -0.5636785667
C     0.4297605692     -2.8127369585     -2.7329221181
C     -1.0136433184     -2.6919910048     -2.5842169694
C     2.3099849667     -1.2828133116     -2.8910384152
C     1.0970120784     -1.8959550104     -3.4526955217
C     2.7933039389     1.1473178423     -2.954343934
C     2.4976073454     -0.0915222487     -3.5842722939
C     1.3667637716     3.1316640363     -3.0407568701
C     2.0498272939     2.1498161661     -3.7053218408
C     -0.8071702777     3.3537577034     -2.2719990886
C     -0.0595917366     3.0853979901     -3.4245911762
C     -2.3977504647     2.4104796944     -0.6855161075
C     -3.0626565332     1.1302759005     -0.587290708
C     -1.9585911345     2.5975467232     -2.033983508
C     -2.569396866     -0.9569351125     -1.8249929675
C     -1.6455272442     -1.4422787618     -2.8526907242
C     -2.7980535736     0.4414287882     -1.8045008001
C     -2.1542919912     1.3619807325     -2.7439136651
C     0.369346322     -0.8758274106     -4.1841811315
C     1.347829818     0.1230247651     -4.494232771
C     1.0648507015     1.4573552905     -4.5706756754
C     -0.2618787261     1.905519968     -4.1965008322
C     -0.9445025764     -0.5130272143     -3.7636256206
C     -1.2559062086     0.9302771324     -3.7511135443


