70

 C     1.5873541398     -0.0221603694     4.5242653189
C     0.7984745865     -1.1427105668     4.4531429957
C     1.3123239257     -2.0208485748     3.3856441472
C     2.5976059275     -0.0882500683     3.4966635695
C     2.3925485437     -1.3119001127     2.7410803019
C     2.5393728998     1.1034369312     2.7773562538
C     0.7400681207     1.1541649732     4.2282600554
C     1.3786110837     1.9072820547     3.2462919025
C     -0.5954318751     -0.7005098224     4.3482175841
C     -0.6080207692     0.7391331847     4.0271821097
C     -1.4558608177     -1.5177125642     3.7161439789
C     0.4256179352     -2.8108034775     2.6465601326
C     -0.9728023591     -2.7681198078     3.0775919289
C     0.7073091668     -3.0827979875     1.2392869084
C     2.5129698952     -1.3318296114     1.3283648967
C     1.7550475473     -2.3161259417     0.5716629142
C     2.8631967368     1.134071741     1.4012450599
C     2.9496916803     -0.0937121197     0.6610456556
C     2.5873253923     2.3894814191     0.7435497428
C     0.6247814556     2.581661696     2.2669591771
C     1.3971877276     3.1293193325     1.1764343536
C     -1.3563587408     1.2161860968     2.9011000228
C     -0.7725374229     2.2585731133     2.0893403661
C     -2.5112053545     -0.970522993     2.8581579965
C     -2.3700324637     0.3293828119     2.2846310413
C     -1.9588632405     -3.1365034098     2.1996100877
C     -2.9492146095     -2.0375567406     2.074708798
C     -0.3465509447     -3.6949362319     0.4317423286
C     -1.708039093     -3.6457604256     0.9081615754
C     -0.1960516986     -3.7309978487     -0.9732801326
C     1.7886398241     -2.2376869563     -0.8963691991
C     0.9001951279     -3.0362002666     -1.6343451778
C     2.980418626     0.0017049498     -0.7796192604
C     2.4100424658     -1.0767613139     -1.5820665273
C     3.0019731684     2.5004693385     -0.5894516097
C     3.1541473889     1.2858043278     -1.3583198014
C     2.4260660965     3.4982246978     -1.4458589934
C     0.6932519194     3.874673105     0.2255539031
C     1.2754771581     4.1583683443     -1.0467454121
C     -1.3863041069     2.6122499959     0.8156561962
C     -0.7077302945     3.5422807855     0.0033691746
C     -2.7907324128     0.5011584816     0.9009830722
C     -2.3658213297     1.7100599308     0.1930911055
C     -3.3003120294     -1.9202109374     0.7349299276
C     -2.7327470563     -3.0900618899     0.044720629
C     -3.259344464     -0.6409426025     0.1132226175
C     -1.3322880287     -3.6138348259     -1.8209541885
C     -2.5317878757     -3.0557889995     -1.3111841269
C     0.4210993773     -2.6123488977     -2.9486380356
C     -0.9681234005     -2.8623051632     -2.9921021577
C     2.0155528894     -0.7731862535     -2.9083535866
C     0.891949175     -1.438289821     -3.5034093893
C     2.6584984796     1.5897443937     -2.7063017285
C     2.1771127906     2.9094624714     -2.7580470049
C     1.9841941462     0.5852116857     -3.3930670542
C     0.2640867144     3.9816963198     -2.0919728978
C     -0.9268901411     3.6123194214     -1.4466289334
C     0.8104348092     3.1550117036     -3.1329821875
C     -2.5406085475     1.7811854577     -1.2100088408
C     -1.7690740407     2.6625418768     -2.0331949997
C     -3.1230042577     -0.6385998382     -1.3517966342
C     -2.8047534026     -1.8285863598     -2.0599771173
C     -1.8762058435     -1.7776985376     -3.1731070718
C     -2.7797756085     0.5824586447     -1.9814985872
C     -0.0078507731     -0.4321975317     -4.0177963005
C     0.6878162669     0.8366601023     -3.9623446523
C     0.0174105311     2.074411701     -3.6722932927
C     -1.3303497873     1.9339053488     -3.1932891043
C     -1.3899551098     -0.5294487869     -3.6852455682
C     -2.0032258297     0.655611247     -3.1756782858


