70

 C     1.2646321512     0.0198022176     4.2698376734
C     2.4885844889     -0.3232060624     3.7728684197
C     2.4742838701     -1.7714071857     3.4325725662
C     0.4142893633     -1.1914116526     4.2264509645
C     1.1063431068     -2.2121821647     3.5145567305
C     -0.8570100705     -0.8068612675     3.8608394918
C     0.5161035107     1.0936266224     3.6991725201
C     -0.8549278612     0.6512867207     3.713730627
C     0.9899718066     1.8159510553     2.5624292333
C     3.0565917981     0.4007892408     2.6880985005
C     2.3169789184     1.4631531509     2.0482384745
C     3.2244644866     -1.9312256736     2.2792097838
C     3.7308773001     -0.5982242194     1.8813436709
C     2.7355199374     -2.7727709738     1.2518391015
C     0.471840489     -2.8008704469     2.3391078752
C     1.359721224     -3.1668391506     1.2807260619
C     -1.6037229542     -1.5541184816     2.8799319731
C     -0.9087360521     -2.4614916006     2.0019306378
C     -2.7717005823     -0.9127161864     2.4555434135
C     -1.8509115039     1.2969357685     3.0096888391
C     -2.9995057892     0.4765918467     2.7318747345
C     -0.0216799229     2.4318168419     1.6789667948
C     -1.4387025332     2.3300230103     2.049677433
C     0.3187037706     2.7925911203     0.3217969862
C     2.6271197739     1.7509571628     0.6568568919
C     1.6724715309     2.4953069834     -0.1818816324
C     3.9850600456     -0.3407545727     0.569243008
C     3.5874428676     0.923906687     0.0043614469
C     3.0824582876     -2.5129830561     -0.1271535191
C     3.7783565924     -1.3571777958     -0.4654744674
C     0.8945738746     -3.239820835     -0.085981717
C     1.9664499894     -2.892926033     -0.9664583417
C     -1.4054493271     -2.568213065     0.6030835152
C     -0.4553956156     -2.9745029134     -0.420342661
C     -3.3916073557     -1.1920747692     1.1667563632
C     -2.6128027986     -1.8987972258     0.1759764284
C     -3.980633938     0.9209541911     1.8110425374
C     -4.2654452403     -0.1483181841     0.8431053735
C     -2.4237860329     2.7348754332     1.1230016028
C     -3.71420521     2.0570774713     1.0834882667
C     -0.7418236736     3.0700937314     -0.6565636179
C     -2.0798761238     3.0513372321     -0.2220735921
C     -0.513972966     2.8901876695     -2.1000232685
C     1.8967460524     2.5336568048     -1.5736026776
C     0.8144167057     2.7076493384     -2.541322568
C     3.5556210818     0.7397964763     -1.4139029616
C     3.5266030857     -0.6761452518     -1.7092764276
C     2.8583007729     1.6385322039     -2.1955344675
C     1.7294719823     -2.2831928041     -2.2290929263
C     2.592436591     -1.1722110573     -2.667876943
C     -0.6922788548     -2.6261856944     -1.7746395806
C     0.3880045242     -2.3057248588     -2.6744585027
C     -2.8194083656     -1.4867468532     -1.2248417572
C     -1.8653228961     -1.9040163121     -2.1733091968
C     -4.2530877366     0.4266562448     -0.4749488582
C     -4.0809536605     1.8378226565     -0.316284903
C     -3.1491930435     2.5222465455     -1.1020821193
C     -3.5799670048     -0.255914163     -1.5341277242
C     -1.5387006395     2.2930046004     -2.910425572
C     -2.8077394413     1.9750886613     -2.3288715093
C     -3.0821069757     0.5779174276     -2.579774019
C     -0.1184120605     -1.355710556     -3.6445769694
C     -1.5251736271     -1.1280740532     -3.3481850153
C     -1.2080705177     1.2430441661     -3.8457461998
C     -2.0777290043     0.1312653737     -3.5145516759
C     1.0947762367     1.9114660803     -3.6831799003
C     2.2952679957     1.1584171158     -3.3990666682
C     2.0612330398     -0.2259735805     -3.6025757587
C     0.1222467785     1.0181803318     -4.1886607766
C     0.6920753583     -0.333219494     -4.1104794456


