70

 C     1.4812193247     0.0267822608     4.8410393721
C     0.7048218649     -1.2003528211     4.7350180495
C     1.4870247788     -2.1663204517     4.1022580524
C     2.6767895365     -0.1498319496     4.030270741
C     2.7355821943     -1.4893815974     3.6250782381
C     2.6951309569     0.8445391793     2.989761355
C     0.7268158634     1.0157271898     4.205180676
C     1.4903690386     1.64579517     3.1601123476
C     -0.5802124036     -0.9055818811     4.1381245773
C     -0.5791713459     0.5102737442     3.8207926503
C     -1.1764004219     -1.7838426614     3.2063297157
C     0.9768481688     -2.9554801123     3.0443864962
C     -0.3956591212     -2.9012469611     2.6662510787
C     2.9347270681     -1.8623093964     2.2759584754
C     1.9755473753     -2.9218115891     1.9764925905
C     3.0567677084     0.5103660675     1.658723425
C     3.1833680063     -0.8808942088     1.2566647609
C     2.6927310433     1.4659901656     0.6469203066
C     0.8411420034     2.2119596314     2.0643670348
C     1.6340727673     2.4049738532     0.887416306
C     -1.2491176568     1.0222098197     2.6894099525
C     -0.6059787643     2.0406671884     1.8731681763
C     -2.2349944276     -1.2203136025     2.3926055434
C     -2.2778209292     0.1951416291     2.0988423453
C     -2.8525247458     -2.1043307855     1.4651068611
C     -0.741086791     -3.393037026     1.3337583777
C     -2.0231729431     -3.1373997461     0.8273803162
C     1.6244399392     -3.1930265296     0.677666592
C     0.2765269658     -3.565941637     0.3516620345
C     2.8709042399     -1.216433259     -0.1348413319
C     2.1544358608     -2.4117426885     -0.4064174093
C     2.9759283907     1.1691287563     -0.7302789941
C     2.8526702909     -0.2089072578     -1.1523660536
C     2.775174214     2.210461452     -1.6456665339
C     1.0731935989     3.1763717425     -0.1840756059
C     1.8876623661     3.32441174     -1.3348492557
C     -1.1852635106     2.4501730078     0.6365535492
C     -0.3766614971     3.2542468266     -0.2883916215
C     -2.9719692138     0.684083511     0.9185928716
C     -2.4139400049     1.7994299895     0.1767350968
C     -3.7667430777     -1.6263072439     0.5424104438
C     -3.8491171047     -0.2369932862     0.2394097423
C     -2.3106438301     -3.1042375433     -0.5832089148
C     -3.50589936     -2.3360649843     -0.7320412946
C     0.0460582319     -3.1944705105     -1.0165349002
C     1.1997311551     -2.4711913684     -1.4724964748
C     -1.2423983016     -2.9178359626     -1.5300901247
C     2.1398874151     -0.4361714322     -2.4071943606
C     1.1081557373     -1.4605046806     -2.4514442272
C     2.5991810607     1.9199619537     -3.0340491969
C     2.0406443822     0.6150279477     -3.3364533099
C     1.3429111009     3.7775526111     -2.5811990877
C     1.866221491     2.9413158291     -3.6737563091
C     -0.8883113951     3.5563864949     -1.5837332684
C     -0.0428660627     3.8690779608     -2.6847891105
C     -2.7291362663     1.9156166621     -1.2387609061
C     -1.9429215858     2.7009738015     -2.0753992715
C     -4.015421955     -0.1523698212     -1.1880553595
C     -3.6687629686     -1.4729803847     -1.7739707588
C     -3.3752595241     0.8149997993     -1.9098148375
C     -1.3627930114     -1.9193633792     -2.6077315676
C     -0.1757014695     -1.1965125294     -3.0802271106
C     -2.6232609456     -1.2537992065     -2.7323484852
C     -2.6310928829     0.1532724975     -3.0101759108
C     0.82653511     0.8482282233     -4.0715757994
C     0.73138013     2.3060465229     -4.2588138575
C     -0.440034008     2.9693255313     -3.8080137898
C     -1.5388703618     2.2301185648     -3.4051366355
C     -0.3254006296     0.0685066488     -3.7967895811
C     -1.5859908622     0.7978445514     -3.6337569359


