70

 C     1.005936307     0.0377191265     4.803757488
C     2.2531786231     -0.2620115397     4.3681444299
C     2.3051144125     -1.7294351577     4.090761317
C     0.1857645814     -1.2203342377     4.7288316678
C     0.9447582093     -2.2088830806     4.0114860496
C     -1.0509526179     -0.8526284842     4.2990507037
C     0.255972025     1.0969330751     4.1744371597
C     -1.0850718138     0.6236847174     4.1412830104
C     0.7789975174     1.7606613246     2.9961611035
C     2.8583375743     0.433006917     3.2328878622
C     2.0956602462     1.3588885041     2.4572255298
C     3.1513895193     -1.903998381     3.0430461358
C     3.6041407262     -0.5624844958     2.5474399078
C     2.7766766395     -2.6612559286     1.9096235698
C     0.4402193268     -2.726136594     2.7553009089
C     1.4102913204     -3.0536837913     1.7066524176
C     -1.6512905948     -1.4189440231     3.1260649841
C     -0.9123712703     -2.3256291749     2.3065138209
C     -1.913682207     0.9079988952     3.0813768917
C     -2.3964786267     -0.3461620868     2.5026343443
C     -0.1707469983     2.2969189673     2.0708104811
C     -1.5610868896     1.924792833     2.170736214
C     0.2768855908     2.77372785     0.7628738708
C     2.3257999499     1.409527799     0.988600442
C     1.455619347     2.1979444051     0.1451521107
C     3.72172992     -0.6159982367     1.1752096969
C     3.468402046     -2.0158161325     0.8069325197
C     3.1504813724     0.4106309208     0.3449642949
C     3.1289447395     -2.3172895812     -0.448699192
C     0.9694599374     -3.2525623697     0.3200703316
C     1.9711866005     -3.1708987748     -0.695058444
C     -1.3005413562     -2.389786315     0.8905890366
C     -0.4049937625     -2.9716390136     -0.0939621738
C     -2.8007235074     -0.3842829665     1.1851557543
C     -2.3874360314     -1.5377620913     0.4102340401
C     -2.4204017928     2.040307744     1.0397130224
C     -3.1002309732     0.8894513211     0.5246765612
C     -0.6829262034     3.3775501549     -0.0437189873
C     -2.1040206054     3.1101768951     0.1650761908
C     -0.4932578951     3.6156377239     -1.459183037
C     1.4844038399     2.0978291304     -1.3161852996
C     0.5267830796     2.8634742522     -2.1285506219
C     2.9624703766     0.1054970282     -1.0633697183
C     3.1424309486     -1.2732803113     -1.4714281936
C     2.1546421242     0.9516231861     -1.9020260851
C     1.6474096127     -2.9438846136     -2.0402756471
C     2.4454973655     -1.8046612105     -2.5535025624
C     -0.7126422775     -2.8000504839     -1.5216716713
C     0.3484993693     -2.7819601391     -2.4928060208
C     -2.6852479514     -1.4606645386     -0.9614423481
C     -1.8721869897     -2.0897166914     -1.9165529574
C     -3.5117245376     0.9049049153     -0.8630147908
C     -3.3227364138     -0.2955195995     -1.5837545019
C     -2.7585195262     3.267796049     -1.0395543572
C     -1.7986932035     3.7658503291     -2.0302999855
C     -3.4768579785     2.1615566801     -1.6146328905
C     -2.1236660348     3.1694056661     -3.2430938015
C     -3.2080951634     2.162634019     -3.008805027
C     0.1876040729     2.3936472015     -3.4554617184
C     -1.1221792616     2.5639898664     -3.9965665233
C     1.6269208696     0.4030784901     -3.1715827457
C     1.6399318735     -1.0269395575     -3.3692293461
C     0.3746692442     -1.7198614583     -3.5075540534
C     0.6144710802     1.0759348462     -3.839069076
C     -1.9611773417     -1.2902784247     -3.1514621474
C     -2.9428282755     -0.2769605736     -2.9769702258
C     -2.8266277678     0.9731298032     -3.6719511886
C     -1.610205136     1.2372013685     -4.4119686271
C     -0.7649221606     -1.0124228597     -3.8819346231
C     -0.5561572136     0.340710843     -4.3581352701


