70

 C     1.6068444737     -0.0284720711     4.6592066293
C     0.8143886951     -1.2563208385     4.5651794071
C     1.4580850352     -2.1760030301     3.7025186389
C     2.6916390925     -0.1152558981     3.8133499559
C     2.6884995619     -1.4732027181     3.2584663072
C     2.6339135126     1.0134650781     2.880164097
C     0.7643185303     1.0715213951     4.2474291018
C     1.4021583028     1.7377231768     3.1520836297
C     -0.5378901368     -0.8757381519     4.3413786655
C     -0.5477303094     0.5961781713     4.0729761973
C     -1.3112605798     -1.7061048895     3.5497922609
C     0.690050267     -2.9414521719     2.7533947212
C     -0.7279451974     -2.8024529214     2.8244957444
C     1.2721680043     -3.2486451259     1.4302528402
C     3.1172711324     -1.6304706852     1.9785147037
C     2.5234445508     -2.628628075     1.0886422103
C     3.0508002178     0.8494170012     1.5561267281
C     3.5148313125     -0.4794796518     1.162188727
C     2.4863623621     1.7025020593     0.5329043487
C     0.6317224558     2.2654421398     2.0935590634
C     1.2736270866     2.4490832179     0.810005294
C     -1.3683350951     1.1266764444     3.0478457648
C     -0.8157599499     2.1018358577     2.115170384
C     -2.3717131832     -1.134578046     2.7411997735
C     -2.4667636483     0.2855108248     2.5852785924
C     -1.5655729964     -2.9793094456     1.6510102761
C     -2.6194593722     -1.9919674713     1.6311853078
C     0.408578249     -3.5330110616     0.336093818
C     -1.0245226761     -3.3727339615     0.4493515682
C     0.7477890792     -3.2008391649     -1.0202576083
C     2.8150794666     -2.2274200669     -0.2270394579
C     3.4041932504     -0.8761690328     -0.1641564612
C     1.9667678915     -2.5464750419     -1.3191271739
C     2.8312236048     1.4248009559     -0.8482830241
C     3.2039443622     0.0654105924     -1.2171524006
C     2.294662182     2.2477921703     -1.8426662518
C     0.5087559559     3.0236520503     -0.2779996325
C     1.1741895166     3.1422605759     -1.5434401298
C     -1.5904933026     2.5125303744     0.9582931625
C     -0.9356908103     3.0636956885     -0.233753347
C     -3.2184775571     0.7246088758     1.5044547673
C     -2.8981646873     1.9723915963     0.8188840023
C     -3.1659660816     -1.4930506135     0.410498628
C     -3.7086053901     -0.1903444456     0.5026234117
C     -1.5385042591     -2.8470938677     -0.8061964149
C     -0.4497464559     -2.8276134377     -1.7386694551
C     -2.6103789178     -1.9221968021     -0.8829303722
C     -0.4291357715     -1.9359029095     -2.8349015056
C     1.9987909073     -1.7006328292     -2.456220127
C     2.7521102075     -0.4391678883     -2.4591472499
C     0.8660854186     -1.5096405913     -3.2891531788
C     2.1205379901     1.7958516741     -3.1995294222
C     2.2074607615     0.4119583479     -3.4588875255
C     1.0404307856     -0.2681895926     -4.013816837
C     0.4750800529     3.404950899     -2.7290531097
C     1.0487786586     2.5560401483     -3.771986924
C     -1.6690012976     3.1270445888     -1.5139483665
C     -0.9443598161     3.2566790929     -2.7455709069
C     -3.5276115006     1.9301077314     -0.4475787605
C     -3.9061381314     0.561671267     -0.6719185171
C     -2.8991776298     2.4058391401     -1.6061848849
C     -2.6753459976     -1.0510587356     -2.0596546343
C     -1.5908786348     -1.073149188     -3.0581841062
C     -3.4413299301     0.1544002043     -1.9523971997
C     -3.0445051974     1.3587143705     -2.6288461346
C     -0.079555186     0.4512047722     -4.3993183311
C     -0.016955249     1.9011074462     -4.3860189792
C     -1.2677970112     2.4164870999     -3.8720590963
C     -1.3946108062     0.0653407605     -3.8906338703
C     -2.1252001384     1.3088746427     -3.6578373414


