70

 C     1.5803692123     0.0187557322     4.6064119145
C     0.7858228404     -1.086565567     4.3534133107
C     1.3601424337     -1.8950266018     3.2795153761
C     2.6619849947     0.0215670028     3.649391243
C     2.5324732647     -1.1720174585     2.8226793273
C     2.6367436362     1.2387120393     2.978598219
C     0.7576284175     1.1973479587     4.3607620732
C     1.42082449     1.9929329851     3.433785818
C     -0.597551764     -0.6488843155     4.2344157659
C     -0.6032131368     0.8047798987     4.0761196255
C     -1.410765898     -1.4024833449     3.4541801142
C     0.5040843209     -2.5796318681     2.379328609
C     -0.9020025394     -2.5139622542     2.6411538419
C     0.9362908529     -2.7940042818     1.0033703286
C     2.8423497053     -1.1559577009     1.4568795675
C     2.1906695337     -2.1612246557     0.619216557
C     3.051891275     1.3167240394     1.6118206583
C     3.2706425862     0.1047188036     0.8365708126
C     2.6758353583     2.4776668791     0.9331104936
C     0.6911933614     2.7417818326     2.4794688155
C     1.5011256681     3.2574263413     1.4248076992
C     -1.3468373168     1.3988024154     3.0107469076
C     -0.7263775795     2.4757422085     2.2395697844
C     -2.4805696031     -0.7811850116     2.7200823064
C     -2.4135850982     0.5978351529     2.3836169554
C     -1.8299560037     -2.7279733361     1.6133464345
C     -2.9241540874     -1.7569047775     1.781361922
C     -0.0124889624     -3.1661158003     -0.0288713604
C     -1.4394849305     -3.1462610937     0.2961322683
C     0.383450125     -3.1219602952     -1.4376496913
C     2.5416642197     -2.1681378375     -0.722572119
C     1.7282829084     -2.781644085     -1.7206987454
C     3.3317702332     0.2080046399     -0.5935777482
C     3.2331854064     -1.0150941978     -1.3240757938
C     2.7070886367     2.5692703677     -0.4919244352
C     2.9732620428     1.4345981812     -1.2984477266
C     0.9071964874     3.8238109839     0.3280070681
C     1.6770233825     3.4711322817     -0.8716030369
C     -1.2958665581     2.8756553765     0.9515506727
C     -0.4768679243     3.62877989     0.0553351481
C     -3.0050813439     0.9930286729     1.1038170528
C     -2.4240837449     2.1305532626     0.3736634168
C     -3.6810049569     -1.3837490023     0.7088116683
C     -3.7513085125     0.0310369716     0.3689774816
C     -2.3977480624     -2.9299453458     -0.7327838554
C     -3.5735470674     -2.1547970535     -0.490736375
C     -0.6179382898     -2.810995408     -2.4834906576
C     -1.9609191455     -2.6534660863     -2.0997136857
C     -0.2147658061     -2.0270451232     -3.6283719834
C     2.1057969647     -2.1614932858     -2.9700947584
C     2.9974317117     -1.0172245453     -2.6889237727
C     1.1708983993     -1.7796343294     -3.8857788341
C     2.304175369     1.3531356188     -2.6107383511
C     2.4439166113     0.1354196673     -3.3376453402
C     1.3685211553     -0.3434034434     -4.1559804252
C     0.8059668727     3.1978412202     -1.9130875804
C     -0.5446216977     3.4145983835     -1.3768511915
C     1.0862041542     2.1378346099     -2.8356124321
C     -2.606183216     2.1741241063     -1.0334718083
C     -1.5832907698     2.7092508613     -1.899965354
C     -3.8407026446     0.0689191916     -1.0840949697
C     -3.7156716716     -1.2627318024     -1.5827542146
C     -2.7712375429     -1.5820889686     -2.6142138851
C     -3.2070840133     1.0951944475     -1.770482373
C     -0.9037613443     -0.8092502208     -3.9309705252
C     0.1095104352     0.2497795855     -4.1206640634
C     -0.0613500769     1.5302626838     -3.5034179348
C     -1.3768328027     1.8156660561     -3.0179140182
C     -2.1642342136     -0.5293542966     -3.3576053062
C     -2.414328762     0.8275230454     -2.9552348954


