70

 C     1.5770770092     0.0266000262     4.7589574184
C     0.7483805681     -1.1073723558     4.568943048
C     1.2167206484     -1.8995608746     3.4450321156
C     2.5598060479     -0.0006061233     3.7478813099
C     2.3695405559     -1.2111409402     2.9499191345
C     2.4929371296     1.2135892128     3.0015387725
C     0.6992031647     1.1522644316     4.4413956606
C     1.2491974063     1.8971047016     3.3767668746
C     -0.6314474671     -0.723878381     4.6007364896
C     -0.6620450766     0.7261988954     4.3581144482
C     -1.5247124452     -1.5308774869     3.936357715
C     0.2950119855     -2.5063458648     2.5346702252
C     -1.0732507139     -2.495715528     2.9313277375
C     0.633196817     -2.5797208967     1.0921277163
C     2.6765448334     -1.209252433     1.5811396926
C     1.8914645901     -2.0088674984     0.6463748863
C     2.9734247104     1.2531210113     1.6942215259
C     3.3286694489     -0.0141970034     1.0752033049
C     2.4859562074     2.3110388573     0.8361406822
C     0.4385166579     2.4338332626     2.3314539317
C     1.138995342     2.8187853888     1.119052835
C     -1.5207023554     1.25015565     3.3371311669
C     -0.9831509265     2.1280127214     2.3017722988
C     -2.7070782158     -0.9175329067     3.4232123348
C     -2.6564316243     0.4362078191     3.0001418646
C     -2.1020527036     -2.5756973036     1.9386725508
C     -3.1644394807     -1.6938968365     2.3145370074
C     -0.409881527     -2.8186220803     0.1005888898
C     -1.7993822739     -2.7829529288     0.5510738357
C     -0.1299817503     -2.6989162566     -1.3369582549
C     2.1751083275     -1.896443141     -0.7800053131
C     1.1985451652     -2.3334689203     -1.7685743836
C     3.6694848669     0.0038099484     -0.2689395072
C     3.2027972878     -0.9976306255     -1.1857865499
C     2.9794342204     2.3544233713     -0.4874862103
C     3.7146728089     1.2443456033     -0.9717844125
C     2.1700483232     2.7933202561     -1.6158081333
C     0.3673937295     3.1787844252     0.0039935794
C     0.8755880087     3.1640877797     -1.3586061165
C     -1.6906872755     2.2486533752     1.0224635155
C     -1.0210584254     2.853689375     -0.0528073062
C     -3.3032476079     0.5254311959     1.6890524423
C     -3.7080508321     -0.825579222     1.3419397489
C     -2.8381857804     1.3878694728     0.6885628604
C     -2.7857396047     -2.3171640226     -0.3591278472
C     -3.6592812274     -1.2311150949     0.0350067523
C     -1.242666177     -2.5167515886     -2.2864068486
C     -2.5003636885     -2.153740227     -1.7408014606
C     -1.0064584903     -2.022038972     -3.6153882929
C     1.3870409778     -1.8989207749     -3.1369135952
C     0.3256903907     -1.8023616287     -4.0359438188
C     3.2020617975     -0.382874979     -2.5142517616
C     3.437296276     1.0223439222     -2.3636276903
C     2.4451788212     1.9388066652     -2.7797837437
C     2.2895679332     -0.7858319012     -3.4391579844
C     0.4079132423     -0.4847480238     -4.7125597076
C     1.4057069486     1.5381041549     -3.6842879432
C     1.5310428685     0.2029725494     -4.2106461046
C     -0.1999281316     2.80563455     -2.2599544936
C     -1.3597620666     2.6220668663     -1.4582568297
C     0.0391513738     2.0495352447     -3.4547151133
C     -3.1057933048     1.0409799034     -0.732712481
C     -3.5907063024     -0.257062713     -1.0099072434
C     -3.168913624     -0.9540879908     -2.2006289059
C     -2.3809083474     1.7127103184     -1.822171966
C     -1.7849133981     -0.9269941312     -4.1433506371
C     -0.8628665069     0.070179377     -4.6526890323
C     -1.0814352589     1.3059310302     -3.9352106918
C     -2.6873549422     -0.2675444307     -3.2936149537
C     -2.2554889483     1.1189207629     -3.106638988


