70

 C     1.6699228648     -0.1564228216     4.4592162039
C     0.8371031674     -1.3412502465     4.2632641262
C     1.5159145858     -2.2169164476     3.3539620428
C     2.668463306     -0.1969271284     3.4569577035
C     2.664503781     -1.4801552036     2.8058067288
C     2.5927451112     1.0161226455     2.6641415175
C     0.8741522457     0.9811450219     4.2278759793
C     1.4684904148     1.7692343667     3.1572533087
C     -0.4858171497     -0.9383835175     3.9875703099
C     -0.4807740798     0.5348854727     4.0418775172
C     -1.2546183517     -1.5821576549     2.9480500161
C     0.7592497664     -2.9615149013     2.4734247087
C     -0.6568570405     -2.6971427905     2.3133685258
C     1.2919212733     -3.3110283564     1.1788035467
C     2.9950276464     -1.5665262554     1.4462371238
C     2.4232655612     -2.6513231416     0.6398329211
C     2.8625723031     0.972420926     1.2967223203
C     3.3298036465     -0.3087596675     0.7551313088
C     2.1915839856     1.9179552518     0.3965648427
C     0.6466268729     2.4658469079     2.2724060531
C     1.0548195027     2.6543271484     0.8854009563
C     -1.333291204     1.2643524412     3.2444493381
C     -0.7834046222     2.4596661462     2.5824864902
C     -2.2583871879     -0.8306810046     2.2090875632
C     -2.4504850381     0.5774181049     2.5693018075
C     -2.7055506926     -1.2679089464     0.9003684837
C     -1.0131753261     -3.0572564849     0.9700780306
C     0.1709181173     -3.5743356492     0.3213079846
C     -1.9987386612     -2.3690318615     0.2362315798
C     0.3102544419     -3.5297496287     -1.0507707924
C     2.5969931182     -2.6402857203     -0.8108116665
C     1.5860180015     -3.1807317439     -1.646555487
C     3.5788023766     -0.3510953088     -0.5964173951
C     3.4052077092     -1.5932682474     -1.3833873429
C     2.4087674364     1.7941977084     -1.0263139799
C     3.3311342807     0.7802025192     -1.4548817964
C     1.3759575451     2.2304213168     -1.9617594055
C     0.0819914093     3.1985933375     -0.0559680752
C     0.1551280486     2.8281598495     -1.4564974795
C     -1.6217634709     3.1777479118     1.7683484297
C     -1.1677129376     3.6456216304     0.4609465059
C     -3.3214128083     1.3754893864     1.8414478139
C     -3.0215120086     2.7996443765     1.6716591376
C     -3.5061522105     -0.3583280479     0.0803531095
C     -3.9126869617     0.9065199911     0.6066008389
C     -3.3776317621     -0.4444161536     -1.3434516942
C     -1.8842658234     -2.4142730815     -1.2291009663
C     -0.7356981577     -2.9999534757     -1.8486355439
C     -2.5382868778     -1.4101928412     -1.9726186244
C     1.3117317547     -2.6468823823     -2.9649479502
C     -0.1184612891     -2.4571183555     -3.0584462788
C     3.2743815793     -1.2301491718     -2.7151996033
C     3.2718465542     0.2578692128     -2.768964457
C     2.1893191483     -1.7002891866     -3.5309102013
C     1.3229243725     1.6111795852     -3.2526254374
C     2.3069537413     0.6649611824     -3.6581500915
C     1.6269884724     -0.5412929361     -4.1723486377
C     -1.8958369197     -0.8159026034     -3.1329515709
C     -0.6596123604     -1.2877824571     -3.6470519661
C     0.0603882829     1.1058212634     -3.7313222054
C     0.2567497389     -0.2912997149     -4.1565997379
C     -1.0880973228     2.6213753512     -2.1882303722
C     -3.2542437911     0.7668313419     -2.1195164878
C     -1.1355685224     1.5428307631     -3.1768206465
C     -2.1948692562     0.5737772766     -3.0718376564
C     -2.3307122341     3.6519058153     -0.3561926512
C     -3.4926823585     3.1973689968     0.4332470889
C     -4.0344019717     2.0638013463     -0.2477870711
C     -2.3174249993     2.9883956807     -1.5914630821
C     -3.4384887864     2.0046428593     -1.5412456492


