70

 C     1.7404569169     0.0299518932     4.5329146283
C     0.9303779891     -1.1763966712     4.5004278633
C     1.4624180187     -2.0634137211     3.5296538401
C     2.6641894413     -0.0526975788     3.485218123
C     2.580189975     -1.3486238512     2.8788608533
C     2.5305658487     1.110136199     2.6150630305
C     0.8688307444     1.1225544546     4.2247349532
C     1.3952985246     1.8621149653     3.110009987
C     -0.4418045644     -0.7918411959     4.382866237
C     -0.4866286101     0.6807741467     4.1931851547
C     -1.3211672516     -1.5762511769     3.6384766929
C     0.5753903419     -2.8666888973     2.7312306972
C     -0.8387888256     -2.6747329168     2.8610601964
C     1.0354666626     -3.2303761747     1.445735211
C     2.8112197138     -1.4858815606     1.5001361103
C     2.2071042174     -2.6217840938     0.8782017359
C     2.7603236472     1.009757603     1.2417632112
C     3.0719524797     -0.3031536736     0.6527651714
C     2.1570980504     2.020057397     0.3898495244
C     0.5164242699     2.491657906     2.2205145652
C     1.0169550595     2.7616774467     0.8863125265
C     -1.4069344162     1.2754853564     3.3073919902
C     -0.9259459331     2.3648385294     2.45700463
C     -2.4090008865     -0.9608612791     2.9083149641
C     -2.5291536683     0.4447793401     2.8020254663
C     -1.7309709746     -2.8317686708     1.717462125
C     -2.7239364807     -1.800186616     1.7793674753
C     0.1425062056     -3.5877055075     0.3511434475
C     -1.2671726161     -3.3089619598     0.4643185398
C     2.1048632045     -2.7060146321     -0.5193270197
C     0.826247803     -3.3636978466     -0.8576384156
C     3.0750122107     -0.4343888409     -0.7608362014
C     2.6569771785     -1.7237595283     -1.3496374988
C     2.4704881278     1.9909488321     -1.0238834131
C     3.0244050503     0.7705117145     -1.6153040898
C     1.7492380633     2.8961043969     -1.8634802399
C     0.1011287548     3.3397555831     -0.0730983545
C     0.4758607894     3.3945834969     -1.4169475618
C     -1.7916740333     2.8306468634     1.4467491948
C     -1.2908239314     3.3335656385     0.1958244294
C     -3.312761254     0.9312525004     1.7137912115
C     -3.0687133449     2.2317771299     1.20858348
C     -3.3179796862     -1.2592075584     0.5863660871
C     -3.6905967637     0.1013836275     0.5987452274
C     -1.9419592239     -2.844049615     -0.71300234
C     -2.9449123328     -1.8302631778     -0.6546604246
C     0.1420807107     -2.987319039     -2.0450463362
C     -1.2473159985     -2.7137956386     -1.9662725905
C     2.2329810428     -1.7652757097     -2.7159997407
C     0.8754228551     -2.2922264099     -3.0342000357
C     2.9166286841     0.5854323448     -3.0303561047
C     2.4989841711     -0.7057655431     -3.543978123
C     1.6272180171     2.6373156487     -3.2554241946
C     2.2035903825     1.5398910891     -3.8280373925
C     -0.5060689888     3.1084785692     -2.4603875864
C     0.1758557396     2.6475933091     -3.5799921185
C     -2.2259834934     2.9189383286     -0.8328320233
C     -3.3023913612     2.238286245     -0.1993640378
C     -3.5782254806     0.9170467206     -0.6113790752
C     -1.7685144585     2.5443818229     -2.1181765201
C     -2.8042112319     -1.0052571006     -1.8487451391
C     -1.8008559681     -1.5953404776     -2.6865076006
C     -3.0061303858     0.3899965517     -1.8252983873
C     -2.1349555498     1.2351819286     -2.6713997125
C     0.2589758536     -1.381376146     -3.9256381412
C     1.3083391185     -0.507781266     -4.3897611997
C     1.1003625304     0.8224321066     -4.5561390157
C     -0.1719221628     1.4303458026     -4.1978031652
C     -1.0467746512     -0.8359406754     -3.6092162151
C     -1.2571539063     0.623149242     -3.6562985663


