70

 C     1.6462158204     -0.1520216676     5.1452389396
C     0.8286361529     -1.3135890913     5.3477662839
C     1.2373050549     -2.2674761607     4.4061741369
C     2.5585833643     -0.428599795     4.0369975394
C     2.3476554996     -1.7449153625     3.5779170111
C     2.5428408533     0.6517228456     3.0678180573
C     0.8243819807     0.8586152519     4.6187119558
C     1.4445474701     1.5069628554     3.4674210451
C     -0.531890921     -0.9666939209     4.8926521692
C     -0.5592519837     0.4029911476     4.4984091795
C     0.0847657454     -2.823279403     3.7114661602
C     -1.0632315489     -1.9335722578     3.9891832927
C     0.2625501898     -3.2838578771     2.4422445447
C     2.3946927045     -2.029864028     2.1747348482
C     1.4956049393     -3.0307064744     1.6847117143
C     2.7235317425     0.4029878815     1.7012516072
C     2.7531412164     -0.9819311384     1.2341344001
C     2.25969642     1.4368958851     0.7784159819
C     0.6491559696     2.114050108     2.5128511664
C     1.2328108145     2.3249151865     1.1920502112
C     -1.333684821     0.8180335328     3.3962879263
C     -0.8083207279     1.9356684382     2.6002376872
C     -1.9180821042     -1.5461950317     2.9305151781
C     -2.1943255103     -0.130442067     2.7136648122
C     -0.8393473359     -3.2698690302     1.4979420479
C     -1.965846009     -2.4212948279     1.7417344173
C     1.1453164632     -3.0933076839     0.3273418042
C     -0.2964310406     -3.3642305573     0.1952490043
C     2.5576018464     -1.1855535452     -0.1678101461
C     1.7639110501     -2.2891989559     -0.6472579859
C     2.5249335197     1.2749523395     -0.6326746996
C     2.7664838185     -0.068899283     -1.0769772527
C     2.0858629465     2.288580783     -1.5812513611
C     0.45873623     3.0105512859     0.1828473692
C     0.9466893905     3.1219906004     -1.176228607
C     -1.5337067323     2.3577603415     1.5141438401
C     -0.9332973262     3.0838168319     0.4188830257
C     -2.8605330248     0.2885567896     1.4875145761
C     -2.6608679812     1.6094340858     0.9949476248
C     -2.6739026558     -2.0086948686     0.6041629431
C     -3.2243311944     -0.6624346328     0.5009601908
C     -1.0092321775     -2.9619260504     -0.9502428596
C     -2.2963118556     -2.4065009112     -0.7150539849
C     1.1564276712     -2.2496525412     -1.9768588708
C     -0.2638850747     -2.559871538     -2.137189292
C     2.6611635352     -0.3486678753     -2.4608045908
C     1.7718787931     -1.4334936111     -2.9241791235
C     2.2932309561     2.0299565286     -2.9728116802
C     2.601786745     0.6964195369     -3.3787312631
C     1.3553296172     2.5241821446     -3.9630434816
C     -0.0032271486     3.4955067162     -2.1785937942
C     0.2235201495     3.174449029     -3.5503900119
C     -1.8478838014     3.0062435583     -0.6732334264
C     -2.8320465922     1.968025281     -0.3728710725
C     -1.4051309535     3.2358200823     -1.9457086849
C     -3.3431505658     -0.3173746351     -0.8805668728
C     -2.8271586931     -1.435725751     -1.6392799905
C     -3.1410099905     1.0082090023     -1.3759257457
C     -0.9629875924     -1.8942435537     -3.1704582758
C     -2.2276713187     -1.2418597909     -2.8592648711
C     1.0938817811     -0.9604787419     -4.1050785144
C     1.6857032325     0.305197797     -4.4678012103
C     0.9248692033     1.3912977281     -4.8262068521
C     -0.3025585671     -1.0888372776     -4.156240989
C     -0.9797260419     2.4774076933     -4.0843017748
C     -1.9288628408     2.4278038469     -3.0624844406
C     -2.6355792463     1.2030743754     -2.7478303501
C     -2.2365276463     0.0588923383     -3.5039956189
C     -0.5292500929     1.3141583114     -4.7829263451
C     -1.134191791     0.0901297882     -4.4423086919


