70

 C     1.6455917588     -0.0358264294     5.1484883594
C     0.823930247     -1.1843897025     5.282190168
C     1.2964948324     -2.1827380393     4.3993356118
C     2.5922501568     -0.3207153066     4.0781448686
C     2.4082792053     -1.662044124     3.6122647129
C     2.5864014508     0.7197066839     3.0892100483
C     0.8257791609     0.9803832822     4.5674179211
C     1.4977932312     1.6290425645     3.4890563827
C     -0.4977142378     -0.8584327125     4.7241124594
C     -0.5268450708     0.5011399278     4.3186580806
C     0.1823905008     -2.7771260869     3.6834805815
C     -0.9617980897     -1.8586135845     3.8063681286
C     0.440156979     -3.3108222893     2.4635044614
C     2.5139566965     -1.9649035433     2.2137690209
C     1.6909196884     -3.0260832783     1.7375299951
C     2.7902940645     0.4566547977     1.7124587053
C     2.8266354431     -0.9193423116     1.240468976
C     2.418887432     1.5192413375     0.7843646083
C     0.7525338886     2.224407002     2.5008204044
C     1.4674876622     2.4969066338     1.2655259621
C     -1.2130341372     0.8801219441     3.1292799146
C     -0.6886610075     2.0048193708     2.4000929712
C     -1.7134331588     -1.5061052539     2.6579508407
C     -1.9719201306     -0.0914912792     2.3578808413
C     -0.6068803285     -3.3559716264     1.4764604659
C     -1.6864894698     -2.4405615361     1.5265369814
C     1.4212506646     -3.193824514     0.3679697225
C     0.0286793383     -3.6208058572     0.2258342563
C     2.6253958215     -1.1388498622     -0.1731846507
C     1.9526961787     -2.3420497626     -0.6324261462
C     2.5724184456     1.3603288336     -0.6259947323
C     2.7230621439     -0.0119038789     -1.1071866244
C     2.0636958816     2.4068950213     -1.5298309191
C     0.8108879406     3.321931541     0.3877517379
C     1.2172675618     3.4274770264     -0.9933530868
C     -1.3443303054     2.4609557352     1.2336858548
C     -0.6356004564     3.4461518601     0.4647853018
C     -2.5172244435     0.2928204099     1.0738580524
C     -2.3555314952     1.6546283339     0.5834285131
C     -2.3367190792     -2.0962512796     0.2820494121
C     -2.9017877593     -0.7545169565     0.1127477026
C     -0.6580845092     -3.427439957     -0.930400278
C     -1.95400586     -2.8066159024     -0.8874033789
C     1.3265996092     -2.3903258613     -1.9590062886
C     0.0219366011     -2.9675199381     -2.1172224726
C     2.4671384132     -0.2625461509     -2.4761115703
C     1.6822986342     -1.4110153582     -2.8941116383
C     1.8362268314     2.0991778556     -2.9073061154
C     2.1510082423     0.7940505803     -3.3756195627
C     0.6517817504     2.5523800528     -3.6263488713
C     0.104675826     3.9157264386     -1.7151586706
C     -1.0479459082     3.7851698453     -0.8164364249
C     -0.261052314     3.3773280953     -2.9628587755
C     -2.7543016884     2.0137438863     -0.7811938553
C     -2.0862126428     3.0930224018     -1.4752612663
C     -1.6787192962     2.9719810811     -2.8758030992
C     -3.3193227097     -0.3807074109     -1.172595892
C     -3.3087095347     1.008104204     -1.6120665395
C     -2.1783488265     -2.2833067098     -2.1999752183
C     -0.9509577598     -2.3799485813     -2.9855314481
C     -3.0124650688     -1.1931417059     -2.3457290998
C     0.7837054175     -0.9821842393     -3.9482918606
C     1.1424171041     0.3558268138     -4.278755891
C     0.1667671139     1.4023454607     -4.4019459819
C     -0.5962151398     -1.3596713293     -3.9210808092
C     -2.1287559583     1.8973681289     -3.6189794527
C     -3.0780193608     1.0271490054     -3.0172900609
C     -2.7758050618     -0.3111083061     -3.4357620605
C     -1.1835182218     1.0627731691     -4.3939388752
C     -1.5792829175     -0.3308586593     -4.2033203877


