70

 C     1.2313571783     0.180230934     4.8158065127
C     2.4644173831     0.0620915465     4.1595056591
C     2.5551423259     -1.2963245561     3.6162142061
C     0.4401600782     -1.0324289967     4.4810594621
C     1.2548156269     -1.9065700837     3.7215481752
C     -0.8073076212     -0.6056260491     3.9662113982
C     0.4367557563     1.301614469     4.5903980288
C     -0.8887998533     0.8166085025     4.1609230538
C     0.8364592717     2.3015252161     3.6675561755
C     2.8399241805     0.9798360688     3.1345878414
C     2.0351492687     2.1342298534     2.869938136
C     3.1823658532     -1.2279900147     2.3693339989
C     3.3470791393     0.1748488546     2.0044380845
C     2.8081879649     -2.1365094999     1.3814209623
C     0.6911695336     -2.5896577288     2.5870402404
C     1.6048398783     -2.9040951611     1.5481975587
C     -1.3593142053     -1.1739676793     2.7618025059
C     -0.6859108821     -2.3032379639     2.1696205623
C     -2.1621755065     -0.3219161012     1.8883780356
C     -1.3856629296     1.6454205186     3.1638313716
C     -0.3815647518     2.6904431447     2.9669898969
C     -2.0834063473     1.1132157806     2.0292930859
C     -0.3089426556     3.3060085823     1.7647528025
C     2.0531330156     2.6642806708     1.5038855048
C     0.9646816902     3.4771354659     1.0917894397
C     3.23052434     0.5789535573     0.6707306641
C     2.7647192111     1.9488526865     0.4335770353
C     2.8767349082     -1.7822933375     -0.0013636234
C     3.052033045     -0.4438003626     -0.3980538165
C     1.1357169701     -3.2574530436     0.2467582407
C     1.9498744998     -2.6121276968     -0.7347424703
C     -1.1676993433     -2.8005137251     0.8974627119
C     -0.2304696415     -3.441682829     -0.0077531946
C     -2.6968781191     -0.8664845228     0.6670383936
C     -2.3560990522     -2.2321667476     0.306319162
C     -3.19567779     0.0300691498     -0.365834816
C     -2.1693994373     1.9403070788     0.8357642301
C     -1.3172257234     3.0749757621     0.7474715436
C     -2.7079879273     1.3983215895     -0.3885974337
C     0.6644972243     3.7114030031     -0.2778256929
C     -0.7618673293     3.4738594407     -0.5016874056
C     2.5443301303     2.3099375396     -0.8975869576
C     1.5628310597     3.3066592942     -1.2594308834
C     2.576418108     -0.069053706     -1.7327699934
C     2.5512013719     1.3206419708     -1.9932942495
C     1.4356508888     -2.2684733532     -2.0096695458
C     1.7496995059     -0.9576079318     -2.5589554553
C     -0.5530403718     -3.5817303574     -1.3837268887
C     0.274252097     -2.9569607329     -2.4059746693
C     -2.7938186327     -2.7415193068     -0.9709698685
C     -1.8794611758     -3.4894197402     -1.7914270209
C     -3.6774754439     -0.5418120672     -1.5906178288
C     -3.5603216142     -1.9297717862     -1.8389932162
C     -3.4208156187     0.1473514534     -2.8266715969
C     -2.3576623028     2.0205196153     -1.6582306252
C     -1.2575108361     2.9566108053     -1.7201764986
C     -2.6603905243     1.2969103306     -2.8611692958
C     1.0555319477     2.9992975384     -2.5491196565
C     1.7437939059     1.8034441983     -3.036931012
C     -0.3050175864     2.8472376307     -2.8141966134
C     0.8348435116     -0.4227763342     -3.5598869627
C     -1.5890667799     1.0515761321     -3.843493165
C     0.8450378587     0.9877140698     -3.741759052
C     -0.4220783273     1.7273048448     -3.7491184235
C     -0.6110547315     -2.4702773916     -3.4504508474
C     -1.9242301725     -2.9561191981     -3.1469207315
C     -3.0310157064     -2.1012304348     -3.219348961
C     -2.8762380732     -0.8437982363     -3.787461527
C     -0.4052976519     -1.146130274     -3.949414357
C     -1.6024440232     -0.3679103486     -4.1960203143


