70

 C     1.5323380069     0.0699568943     4.7372065834
C     0.7632273707     -1.1014288781     4.5684296588
C     1.4826376881     -2.013375012     3.7064022673
C     2.7247149577     -0.0435610112     3.9212795953
C     2.7572156403     -1.3798029023     3.3679015698
C     2.7709061659     1.0508220633     3.0411593975
C     0.7604187123     1.1747923986     4.2758949679
C     1.5064346083     1.8189304911     3.2544729987
C     -0.5803258506     -0.7135521462     4.2157700228
C     -0.5788703922     0.721956983     3.9639042107
C     -1.2790344792     -1.5376375258     3.354267382
C     0.7896803386     -2.811064704     2.7353141845
C     -0.6298234874     -2.6703891959     2.7045070321
C     1.4632410219     -3.1512654138     1.4668428552
C     3.2740484034     -1.5489594912     2.0942577127
C     2.7025391112     -2.5154820544     1.1645778317
C     3.2946512811     0.9022486971     1.7207113205
C     3.7140604988     -0.4081379036     1.3268303555
C     2.8387023105     1.8239641974     0.6959859272
C     0.8516130287     2.398785252     2.1610359715
C     1.6415832234     2.6443700068     0.9566652754
C     -1.2612620961     1.2474251066     2.8497789116
C     -0.5986826886     2.2606159786     2.0422601045
C     -2.211854338     -0.9898311548     2.4169190382
C     -2.2393888891     0.4040923196     2.1471610213
C     -1.3874221782     -2.9569776145     1.5179609107
C     -2.4042313978     -1.9439519103     1.3435053262
C     0.6797740384     -3.5282302278     0.3428256018
C     -0.7691310823     -3.4585927348     0.3892230769
C     1.0587945336     -3.2183586512     -1.0028531605
C     3.0118001744     -2.0953120112     -0.1655581653
C     3.6546245081     -0.7930196149     -0.05500952
C     2.1831228616     -2.3950367878     -1.2814649907
C     3.109921562     1.5094397397     -0.6536687935
C     3.4421047864     0.1539273206     -1.0287037488
C     2.3385315965     2.0517361436     -1.739704126
C     0.9752453324     3.2249367833     -0.1138520543
C     1.3536828716     2.9872225946     -1.4889279689
C     -1.2583898417     2.731418959     0.8627040924
C     -0.4644341745     3.3889344603     -0.1139525994
C     -2.8466351221     0.8278678763     0.9224618513
C     -2.5371933252     2.1576215343     0.4188207261
C     -2.8617793802     -1.5505502723     0.0933227773
C     -3.3345087209     -0.1730446963     -0.0244854249
C     -1.2866128029     -3.143907161     -0.9153021733
C     -0.1486848089     -3.1062455664     -1.8053090343
C     -2.3632840138     -2.2501429643     -1.1050869663
C     -0.1854856886     -2.3168181493     -2.9302106138
C     2.0878589171     -1.4335965876     -2.3937471253
C     2.7200398551     -0.1690993107     -2.2488623352
C     2.1091388225     1.0281669741     -2.7427061672
C     0.9445261133     -1.4512549393     -3.2388904805
C     0.915554953     1.01884296     -3.5138147236
C     0.406951051     -0.2719561597     -3.8403175804
C     0.1870216988     3.0673298312     -2.3234727724
C     -0.9119710547     3.5017190971     -1.4688905128
C     -0.0382490201     2.1374596742     -3.381926354
C     -3.0665039459     2.5458634035     -0.827032014
C     -2.2249384588     3.2282732201     -1.801818792
C     -3.8056006083     0.2421093869     -1.2760233597
C     -3.8830977388     1.6244687975     -1.5888060818
C     -2.5044463599     -1.6106114396     -2.400688623
C     -1.4042242292     -1.6624670216     -3.3144619391
C     -1.0253138368     -0.4668721583     -4.0293107356
C     -3.3904061642     -0.4954838205     -2.5080748257
C     -1.405517692     1.9442422806     -3.7727645644
C     -2.4774864521     2.638140745     -3.0932968076
C     -3.5816430299     1.7671000479     -2.9737650099
C     -1.895595056     0.6074211676     -4.1093322663
C     -3.2046776484     0.4738138066     -3.508268158


