70

 C     1.4616865564     -0.2758905828     5.2439679809
C     0.6430365288     -1.3806799884     5.2462674551
C     1.2359552037     -2.3922044456     4.3349583017
C     2.6172584973     -0.5224314898     4.3817090753
C     2.5110710076     -1.8847756776     3.88112848
C     2.6567130456     0.523634793     3.443811701
C     0.7205445725     0.8780483674     4.7339580542
C     1.4599114202     1.3911867893     3.6502858813
C     -0.6589092105     -0.9974724966     4.7495914869
C     -0.6225490998     0.4523436192     4.4628985906
C     0.2581225069     -2.7006140139     3.3736009414
C     -0.9228392663     -1.8461215599     3.6577091134
C     0.5878708761     -2.9574311816     1.990885485
C     2.85303451     -2.1085883522     2.5532258177
C     1.9532916186     -2.8210134714     1.6641049775
C     3.1077010425     0.3096875555     2.1013081619
C     3.3826961145     -1.0347956456     1.7368087221
C     2.709712391     1.2480781387     1.0565790253
C     0.8144369834     1.9530453275     2.5159857974
C     1.5613049383     2.0862379881     1.2685890918
C     -1.2675260084     0.9238295049     3.3183735702
C     -0.6138828164     1.8803976259     2.423829147
C     -1.7183443816     -1.4094231482     2.579037733
C     -2.1142952651     -0.0238715147     2.6090263547
C     -0.4147471889     -2.7428218652     0.9247767906
C     -1.6388119865     -2.0544858456     1.2780502078
C     -0.0271086185     -2.7411955279     -0.4728649822
C     2.3064220486     -2.4968399422     0.3080861211
C     3.2191225568     -1.4053979286     0.3573989819
C     1.4007132938     -2.6081337728     -0.7621282065
C     3.0913264592     0.9465497777     -0.3169711262
C     3.2713197372     -0.4600972527     -0.6796537352
C     2.6888471217     1.8176489105     -1.3247627568
C     0.9110958153     2.7280038106     0.1436054428
C     1.6535426709     2.7925909143     -1.0608516522
C     -1.2825278609     2.2931641744     1.1907777053
C     -0.5420337385     2.8382604035     0.0680973507
C     -2.8205333755     0.4518788557     1.5286128203
C     -2.5463504539     1.7419937779     0.9241271472
C     -2.5199667675     -1.5967295453     0.2364059158
C     -3.2634431502     -0.4049456007     0.4941193421
C     -0.9674800668     -2.3989802476     -1.5247319265
C     -2.2840914908     -1.9451306247     -1.1547781559
C     -0.4745648392     -2.0293810263     -2.8742325857
C     1.8135282103     -1.9672517587     -1.9535307125
C     2.7740506959     -0.9070785719     -1.9224234439
C     0.8975659793     -1.698941509     -3.0156036142
C     2.5094598957     1.3752789617     -2.7165112533
C     2.4441672695     0.0092373563     -2.9863697192
C     1.3306609738     -0.5210010915     -3.7368146898
C     1.0027850432     3.0948547029     -2.276307496
C     1.529482641     2.2136985451     -3.3214988058
C     -1.2079197924     2.9830166532     -1.2316660469
C     -0.3824506923     3.1430358185     -2.3930446848
C     -3.1432242789     1.7501282541     -0.3736367879
C     -3.7187074569     0.4340783588     -0.5772960567
C     -2.5461307505     2.4275058899     -1.4622862348
C     -3.1261469218     -1.3361522289     -2.1527591731
C     -3.8567143151     -0.0897780209     -1.8357130135
C     -1.3374855548     -1.4063636328     -3.8149528769
C     -2.7336316012     -1.2421505172     -3.5045580569
C     0.3741439114     0.321350916     -4.3749318465
C     0.4897274917     1.752526654     -4.1269411249
C     -0.716620995     2.4752529646     -3.6708023063
C     -0.9232598389     -0.2228698331     -4.5492546932
C     -2.9391630792     1.9804995515     -2.7873291102
C     -3.6930069859     0.7908373907     -2.9453782901
C     -3.1870142533     0.0067526257     -4.0663986991
C     -1.9558806686     1.9536479009     -3.8836476692
C     -2.0749468785     0.6627570242     -4.5810672079


