70

 C     1.0798436371     -0.1846725609     4.9273344791
C     2.2549412585     -0.3785628789     4.2256849725
C     2.1766353365     -1.6568775051     3.5022551607
C     0.2287541471     -1.3734841099     4.6826637972
C     0.8761346682     -2.219023168     3.7102437062
C     -1.04465666     -0.9002776109     4.4139670767
C     0.2767535079     1.0057867011     4.6758234543
C     -1.0576376186     0.572694451     4.4408658046
C     0.7915611535     1.9957504018     3.8121140384
C     2.7732026116     0.6037111236     3.3140756873
C     2.1037922734     1.8212859937     3.1955624722
C     2.7123676135     -1.4768712585     2.2196435353
C     3.1692152929     -0.1004803189     2.0863083683
C     2.1494653242     -2.1431244933     1.0996729652
C     0.1693361229     -2.6866279137     2.5655636115
C     0.9144707146     -2.8629248893     1.3264507369
C     -1.7705257626     -1.3366677523     3.2739209608
C     -1.2439378288     -2.317615335     2.4108243197
C     -1.8019142658     1.0092170235     3.3239094695
C     -2.408368739     -0.1454273846     2.6883283499
C     -0.0488648428     2.5918386127     2.7970983022
C     -1.3348057304     2.0689737678     2.4760345037
C     2.0886081065     2.4646091912     1.9079825377
C     0.7943159525     3.043217837     1.7117967706
C     3.1727291946     0.5088695354     0.836962294
C     2.759527687     1.915131024     0.7851829763
C     2.4657880526     -1.6503017955     -0.2275433333
C     3.0056464351     -0.319061082     -0.3681745976
C     1.8122885269     -2.2836321131     -1.3748488997
C     0.1873498726     -3.2697417988     0.1863068223
C     0.6748420536     -3.1193547939     -1.1296206631
C     -1.8975237082     -2.4407114066     1.1232545286
C     -1.2657437587     -3.2142307888     0.1397442244
C     -2.8173903184     -0.1208853803     1.3744338437
C     -2.8347234476     -1.4095928696     0.6716191735
C     -1.8292961738     2.1452710715     1.1001113235
C     -2.7083822238     1.1240190214     0.5995428488
C     0.2874119217     3.3014188286     0.4291545259
C     -1.1008310462     2.9602928735     0.1271910007
C     2.4092095584     2.4563026626     -0.4595806543
C     1.2402064307     3.2540047877     -0.6259731033
C     2.9301513219     0.3391388271     -1.6614802104
C     2.654086933     1.7501839631     -1.6991044549
C     1.9095735867     -1.7021283734     -2.6472244901
C     2.5279548552     -0.4116092945     -2.8076738971
C     0.8240194411     -1.8101718484     -3.6292558901
C     -0.463588272     -3.1225018502     -2.0455588766
C     -1.6532601154     -3.1660387451     -1.2289744382
C     -0.4308616851     -2.4181158338     -3.2738428842
C     -3.2626055945     -1.4267304153     -0.6471099262
C     -2.7705016153     -2.4077738485     -1.6051310545
C     -3.06890979     1.0738022362     -0.8002381972
C     -3.510010857     -0.1718864647     -1.3669531415
C     -1.4658567021     2.8991249348     -1.2281939557
C     -2.4919533825     2.0156116539     -1.699912926
C     0.8478119205     3.1544603323     -2.0060765859
C     1.8075428055     2.3166293929     -2.7058159529
C     -0.4957940978     3.0620228881     -2.3124614493
C     1.8898276686     0.2209355229     -3.9123730695
C     0.8473427979     -0.6405906492     -4.4064368377
C     1.3810723876     1.5381736537     -3.7929299015
C     -2.2196275843     1.6871540091     -3.0882295806
C     -0.9417106364     2.2642991348     -3.4426552099
C     -0.3472630278     0.1543303522     -4.5917039655
C     -0.0209293849     1.5335830702     -4.1998075265
C     -1.6500681302     -1.7526450565     -3.7071836019
C     -2.7871663393     -1.8035042032     -2.8796592153
C     -3.3024614636     -0.4391369618     -2.7272916558
C     -1.5806628247     -0.3926760047     -4.2838395607
C     -2.5659476048     0.4238138576     -3.5787689449


