70

 C     1.6059061792     0.0480424372     4.7651457255
C     0.8164772388     -1.1753930212     4.6894367093
C     1.4019950612     -2.0824244919     3.7704885928
C     2.6584493815     -0.0599990548     3.848947317
C     2.6069430582     -1.4032561616     3.2763748906
C     2.6061871822     1.0509769054     2.9285401101
C     0.7451434968     1.0990164273     4.3160538382
C     1.3600664104     1.7525089783     3.1915174859
C     -0.5633398709     -0.8177517389     4.5417320272
C     -0.5839836027     0.6113731473     4.1720039209
C     -1.3922881595     -1.7073626657     3.9012378923
C     0.5597714393     -2.8459270541     2.8720958395
C     -0.8286556418     -2.8230525835     3.1589119967
C     0.9537863958     -3.0098111985     1.4559067486
C     2.9576423712     -1.5655423192     1.9630950854
C     2.1935164523     -2.4500789268     1.0699932727
C     3.0191139775     0.8816470257     1.5956047635
C     3.3898280842     -0.4405115285     1.1627396732
C     2.4714475339     1.7644379411     0.5955691586
C     0.5735297117     2.2439640135     2.1306248229
C     1.2377181036     2.4669124459     0.8613621524
C     -1.424043065     1.0612344672     3.1150494323
C     -0.8790873106     2.0046198212     2.1377007997
C     -2.527820924     -1.1995323753     3.1445579244
C     -2.5380594224     0.1848786757     2.7339836775
C     -1.7670749136     -3.1076199833     2.1231111744
C     -2.8931391312     -2.198532457     2.2170535262
C     -0.0465269218     -3.1482675347     0.3872809546
C     -1.4197384111     -3.2396416582     0.7719222377
C     0.2230895604     -2.7246822997     -0.9746650115
C     2.4419859067     -2.0341725163     -0.2589469198
C     3.1890295112     -0.7936197658     -0.1916391513
C     1.5252291728     -2.2098437476     -1.3166607818
C     2.8278179114     1.523045449     -0.7792947274
C     3.0893709926     0.169492527     -1.2106067628
C     2.3477806698     2.4285661662     -1.7448300258
C     0.4762245499     3.0207129302     -0.2462775267
C     1.1274533014     3.1915947744     -1.4818760343
C     -1.6250413318     2.2994037846     0.9409181301
C     -0.9763529325     2.9276776057     -0.2205179806
C     -3.2128756161     0.4740740664     1.5305090163
C     -2.8394834731     1.5917924723     0.7217498537
C     -3.337324429     -1.8949564963     0.9125142051
C     -2.4699154198     -2.5831751908     -0.0281525325
C     -3.6706237765     -0.5776590222     0.6247023467
C     -0.8871041573     -2.3438318301     -1.8557386051
C     -2.2103550418     -2.0635775987     -1.2864294405
C     -0.5989055396     -1.7977381182     -3.0992748885
C     1.7706051359     -1.4650530325     -2.5414315867
C     2.650600536     -0.2775774942     -2.5203392612
C     0.7521369513     -1.5044519491     -3.5156837055
C     2.3916361696     2.0883843542     -3.0980858943
C     2.5097605386     0.7179608921     -3.5246889678
C     0.4215371273     3.3082552305     -2.7392138544
C     1.2380030915     2.7005014935     -3.765294811
C     -1.6355347879     2.9137158526     -1.476677359
C     -0.9486805091     3.0428428238     -2.7340009036
C     -3.2688505301     1.3153077197     -0.6290673598
C     -3.5603068944     -0.0993660728     -0.7111087906
C     -2.9203587651     -0.8481838649     -1.72604519
C     -2.7164918828     1.9714128656     -1.687140402
C     -1.4724621154     -0.7770715648     -3.7241953569
C     -1.5073578492     2.0523449669     -3.6730502973
C     -2.46965756     -0.1423915101     -2.9111616585
C     -2.4866945755     1.2863721132     -2.933449614
C     0.6746190027     -0.5042035886     -4.5392461552
C     1.5454471529     0.5605501545     -4.5839676403
C     0.7182355694     1.790149499     -4.6643201104
C     -0.7172928325     -0.034666068     -4.630718578
C     -0.6826575148     1.4071564467     -4.6046374472


