70

 C     1.618695455     -0.016178424     4.638912193
C     0.7952759813     -1.176686437     4.3525976103
C     1.3841494061     -1.9154625236     3.2938635422
C     2.6532031304     0.0212974778     3.6564253896
C     2.5478405412     -1.1407510562     2.8340495659
C     2.6908257951     1.314583847     3.0193499721
C     0.8199874056     1.1109685511     4.3711875468
C     1.5068481988     2.0142690015     3.4710854685
C     -0.5581187709     -0.7434765356     4.186629295
C     -0.5486553378     0.7138146465     4.0889203579
C     -1.3669252645     -1.4531140117     3.3203627782
C     0.5769525004     -2.6021936247     2.3383682614
C     -0.8298245089     -2.5073629472     2.5115742823
C     1.0829491467     -2.8142336887     0.9839673627
C     2.8668800027     -1.0908380549     1.4603253219
C     2.2743174702     -2.0894739427     0.5662854352
C     3.1002201674     1.4155031044     1.6781247564
C     3.3443680575     0.1863873869     0.9163350235
C     2.6218337195     2.5623299593     0.9767009421
C     0.761719309     2.8139804437     2.5958308719
C     1.4664992649     3.2741635679     1.4368689092
C     -1.2950456528     1.3832952764     3.0929804369
C     -0.6989227709     2.589291451     2.4840454572
C     -2.3453978671     -0.7708378859     2.5070096687
C     -2.311891845     0.6254204668     2.3260975709
C     -1.7230280407     -2.7011795883     1.4001940202
C     -2.6811130805     -1.6354070764     1.40994865
C     0.1706034801     -3.3641168081     -0.0231953864
C     -1.291253016     -3.2738537439     0.1983345703
C     0.6017278954     -3.4526145609     -1.3578564283
C     2.5701863709     -2.0028118135     -0.8454030117
C     1.824739916     -2.7940123349     -1.7658139403
C     3.4117033752     0.3034196681     -0.4802878817
C     3.1390802077     -0.7939667149     -1.348808381
C     2.599151463     2.6133301143     -0.4613470606
C     3.0485573996     1.5310273532     -1.1776483318
C     0.7748762148     3.7933243878     0.2948832542
C     1.4370167887     3.3361752821     -0.9157645766
C     -1.3453178817     3.1358913831     1.383381282
C     -0.6121906866     3.8619128386     0.3302596091
C     -2.8689878458     1.1530504727     1.0773003832
C     -2.4933048736     2.4840573932     0.7423513033
C     -3.2572524319     -1.1662103098     0.2113505984
C     -3.3371966947     0.2774957109     0.0089122985
C     -2.1723116614     -3.1162739622     -0.905138044
C     -3.1629437704     -2.0612439076     -0.8862124674
C     -0.3300144694     -3.4395206926     -2.4936728241
C     -1.695773597     -3.226670947     -2.2636259976
C     1.6028002913     -2.3337710979     -3.0867071911
C     0.297669352     -2.7096963513     -3.545544509
C     2.6694747948     -0.246525081     -2.6026661945
C     2.4130519562     1.1620064258     -2.415995949
C     1.8723980992     -0.9815224512     -3.4473015897
C     0.7050429477     2.8915379023     -2.054222792
C     1.1903830285     1.7375467245     -2.8285015719
C     -1.3102508438     3.6842670572     -0.8776729334
C     -2.5059603252     2.9029776722     -0.6002768596
C     -0.7100662119     3.1424859426     -2.0326106651
C     -3.2845208689     0.7386303133     -1.3774943789
C     -2.7411592217     2.0172369669     -1.6530508931
C     -1.6388227269     2.1775772715     -2.6012879777
C     -3.2966933676     -1.5785502451     -2.232175599
C     -2.4131602011     -2.2904897575     -3.0831919645
C     -3.1533018667     -0.1920928086     -2.4472455236
C     -0.3165265317     -1.5307379785     -4.0845302506
C     0.6400200759     -0.4116975854     -3.9670477241
C     0.2353991981     0.879930854     -3.5803573794
C     -1.2176396665     1.0996224842     -3.3926212004
C     -1.6811893838     -1.3171629358     -3.8586621183
C     -2.1216871338     -0.0080714741     -3.4708743924


