70

 C     1.4128631751     0.0435266871     5.2431129066
C     0.6066287541     -1.1595063415     5.0820264147
C     1.3550679504     -2.117290243     4.3939811217
C     2.610825509     -0.1296351742     4.447577743
C     2.5956511733     -1.4376975597     3.9375402215
C     2.6870011059     0.9306485901     3.4685250244
C     0.6836185885     1.0587871051     4.5999475822
C     1.4851052922     1.7298093027     3.6120167221
C     -0.7022434657     -0.7930570091     4.5471924057
C     -0.6451740729     0.6212841804     4.2030963304
C     -1.3210912299     -1.6594689369     3.650979488
C     0.8106317802     -2.8080816283     3.2669804078
C     -0.5576473589     -2.7310997208     3.0070545812
C     2.7513477228     -1.7164560581     2.5469550107
C     1.7089854412     -2.6291568927     2.1312713052
C     3.1646708554     0.6819997581     2.1523202641
C     3.1702718259     -0.7042316825     1.6340465544
C     2.8576405481     1.6921450661     1.2227450975
C     0.8707866987     2.3367739104     2.4935684141
C     1.7305271264     2.5642762754     1.3972771115
C     -1.2492529728     1.1254444044     3.0184541617
C     -0.5415956802     2.1187271754     2.1919845723
C     -2.1933795932     -1.1182134467     2.6544274052
C     -2.2059266805     0.2674488945     2.3433681225
C     -1.0280631962     -2.8368779022     1.6543874523
C     -2.1919635974     -2.0194598915     1.5296293915
C     1.2503314539     -2.6550353896     0.7939226233
C     -0.1609412403     -2.891567258     0.5235772091
C     2.9503740998     -0.9281742842     0.2389438959
C     2.0139586094     -1.9593555607     -0.2100981104
C     3.0541964143     1.5021017985     -0.1769668814
C     3.1963484669     0.1776891575     -0.6739422928
C     1.2520598865     2.9002562301     0.1008583062
C     2.1963895413     2.3953413005     -0.8878980758
C     -1.0221066082     2.423668906     0.8743607362
C     -0.1128104957     2.9001233373     -0.1922664692
C     -2.7576063674     0.6591786509     1.0743268948
C     -2.2843357722     1.854141515     0.4407667113
C     -2.7145781089     -1.6671611984     0.3021585296
C     -3.3480252919     -0.3618935408     0.210480939
C     -0.7165720259     -2.6299839277     -0.7851312934
C     -2.1029277079     -2.2315766281     -0.8806130026
C     1.534301608     -1.9849357927     -1.5755010281
C     0.1716728125     -2.3495566563     -1.9018504147
C     2.9508699247     0.0072906739     -2.0306502276
C     2.2695369935     -1.1911573163     -2.5343801135
C     1.8655123604     2.2004116517     -2.2351399692
C     2.5392893206     1.0965293292     -2.8690782084
C     -0.4835400404     2.8670754226     -1.6191855388
C     0.5157107097     2.5778847837     -2.6688850649
C     -2.7434302588     2.1457403148     -0.8803168988
C     -1.8364278114     2.662607428     -1.9168504405
C     -3.8789979346     0.0014514853     -1.0233161388
C     -3.7110747902     1.3420886442     -1.4970556895
C     -2.6452702902     -1.8178917343     -2.1212829415
C     -3.6754110832     -0.8629918269     -2.1633329221
C     -0.4013734375     -1.9458789799     -3.2089069457
C     -1.7948427163     -1.6758384822     -3.3002964578
C     1.7861663748     -0.9244355645     -3.8023961944
C     1.991287008     0.5128393522     -4.0458214467
C     0.4272140953     -1.2478838263     -4.1610793628
C     0.0548627563     2.045039021     -3.9091675913
C     0.8195992512     1.0049880776     -4.5594187894
C     -0.0988250241     -0.1155904452     -4.8499564336
C     -2.2822816228     2.131428014     -3.1887055758
C     -3.4282871687     1.2938356737     -2.9279252605
C     -3.4314828881     -0.0369379972     -3.3377993311
C     -2.3278159286     -0.5744214126     -4.0832021624
C     -1.3350623472     1.7135386747     -4.1159079164
C     -1.4109404458     0.3263795371     -4.6555364476


