70

 C     1.2429899899     0.0153678894     4.9731267819
C     2.4794384524     -0.3194817056     4.4459231616
C     2.3775409547     -1.6765770929     3.8117548943
C     0.3869005922     -1.1808645995     4.8494527118
C     1.0557718236     -2.1304233067     3.9568047559
C     -0.8779495076     -0.7508321793     4.542537388
C     0.5031563261     1.1451043503     4.4342406902
C     -0.8535950959     0.7048860579     4.3377901712
C     1.0439742953     1.9058363541     3.3334498471
C     3.113095706     0.5211210033     3.5326236764
C     2.4119282964     1.6255769039     2.96538213
C     3.0008761598     -1.6172743638     2.5442430614
C     3.5901399784     -0.3093777226     2.4102490255
C     2.3811026975     -2.216983349     1.403509781
C     0.3586163498     -2.6864930628     2.8157974797
C     1.0957265503     -2.8731944792     1.5632370277
C     -1.6335906645     -1.3453456702     3.4872379753
C     -1.0703002766     -2.4124919541     2.7056822985
C     -1.6493029464     0.9687201939     3.2239128852
C     -2.2917028924     -0.2790576749     2.7920529163
C     0.1396439385     2.3298955013     2.249436852
C     -1.2274902431     1.8669055054     2.206450945
C     0.6875318767     2.7385388318     0.9687002068
C     2.7664531057     1.6329516546     1.5636258183
C     3.4625732749     0.3991435144     1.2269020289
C     1.9969692514     2.2489736772     0.5977462349
C     2.713034737     -1.6498257499     0.1019843339
C     3.1472198889     -0.2650661887     -0.0011011757
C     2.1073711151     -2.1848211532     -1.0382583247
C     0.3669012295     -3.2408945468     0.3460729141
C     0.973264826     -3.0450582767     -0.9340668344
C     -1.7188497151     -2.6381398822     1.469316586
C     -1.0482398326     -3.2151998964     0.3492245082
C     -2.7649276077     -0.4274849199     1.4819120894
C     -2.676609554     -1.7208785968     0.9278847343
C     -1.9748184567     1.8578548711     0.9457393856
C     -2.7817809751     0.725333214     0.5801168993
C     -0.1701296881     3.1756471693     -0.085284391
C     -1.5721661702     2.7789770619     -0.0785342822
C     0.4403902693     3.4092363216     -1.3601879916
C     2.2612767669     1.8811422395     -0.79297098
C     2.7328596069     0.5377225852     -1.1062054935
C     1.5771802166     2.6112038342     -1.7448905795
C     2.0317746561     -1.4719308521     -2.284772935
C     2.257448673     -0.0835448849     -2.3394794374
C     0.2278375208     -2.9419356732     -2.170078017
C     0.957707702     -2.0622747169     -3.0487669461
C     -1.793462805     -2.8927588502     -0.8560858237
C     -2.7560371183     -1.9157858728     -0.4942782995
C     -1.195634305     -2.8503403296     -2.1431913766
C     -3.163658801     0.516770022     -0.8025133267
C     -3.130010327     -0.8601747757     -1.3699029734
C     -2.2866495856     2.7612696907     -1.303034218
C     -3.03728542     1.6005197784     -1.6842813
C     -0.3422892105     3.5786377898     -2.5315803552
C     -1.6923830785     3.2889185727     -2.5056792838
C     1.349162722     2.1149888292     -3.1090691701
C     1.5698835894     0.7122184502     -3.3787790713
C     0.2523224068     2.7977930255     -3.6376434753
C     0.3158545992     -1.3320308186     -4.0454726682
C     0.6569738671     0.0811762544     -4.2605128967
C     -1.8498947735     -2.0473398521     -3.1263455572
C     -2.8291651784     -1.0464240585     -2.7349123084
C     -1.0886932029     -1.462126629     -4.179125254
C     -2.8544457063     1.400594431     -3.1440045149
C     -2.0205851785     2.4245448469     -3.6339378527
C     -0.7919807016     2.1035375301     -4.3360862927
C     -0.5597542513     0.7695284824     -4.7070910665
C     -2.7011249438     0.0950840192     -3.6438976681
C     -1.6283857892     -0.1732868319     -4.5321000542


