70

 C     1.6200897408     -0.0930756873     4.7568701909
C     0.8121211832     -1.2700742332     4.7277469971
C     1.4316170598     -2.2589736842     3.8907993103
C     2.6459500302     -0.2753706384     3.7647844211
C     2.5348450444     -1.5794409565     3.1859277983
C     2.6293913082     0.8320133038     2.8711504238
C     0.7962568893     0.9546440309     4.2617498769
C     1.4432630454     1.6188056984     3.1773418334
C     -0.5761906164     -0.911788261     4.4807777056
C     -0.5625327419     0.4900661324     4.0717175283
C     -1.3729194874     -1.8256674794     3.7947815129
C     0.6042896377     -3.1481978716     3.1944578577
C     -0.8044347358     -3.0595707594     3.3410631602
C     0.8943556918     -3.4630553974     1.7897762346
C     2.7418340738     -1.7735867003     1.7847997314
C     1.958760404     -2.8239214402     1.1112574102
C     3.0057871146     0.6790729413     1.5318732614
C     3.1763902602     -0.646877476     0.9740167052
C     2.6374332316     1.7706196504     0.6621518552
C     0.6992908562     2.2000446712     2.1341485882
C     1.4188278136     2.5161923734     0.9229483187
C     -1.3009879253     0.9381438582     2.9539542029
C     -0.730571452     1.9653599517     2.0652814452
C     -2.2506850082     -1.3426286732     2.7365325413
C     -2.2504047816     0.0121987363     2.3431101508
C     -1.3786670138     -3.343946946     2.0447665032
C     -0.3667604516     -3.6540499892     1.101096918
C     -2.3213495688     -2.3652806608     1.7014432944
C     -0.5531540275     -3.2957176428     -0.2698884832
C     1.8519501557     -2.7960765687     -0.3153557029
C     0.6261353174     -3.0713850495     -0.9981979041
C     3.1918927879     -0.7464844927     -0.4815025947
C     2.547419044     -1.842177624     -1.1111423273
C     3.1158204826     1.712402329     -0.6591832739
C     3.3142607343     0.4284057655     -1.2685011254
C     2.5865667506     2.578699616     -1.6356977033
C     0.7063847519     3.1325945594     -0.1621822824
C     1.3872233183     3.2543734046     -1.4361696745
C     -1.435497877     2.3656761989     0.8897162886
C     -0.7352422627     3.12543877     -0.1495521139
C     -2.8429264566     0.3384264262     1.064858008
C     -2.6690389111     1.663808713     0.5284499914
C     -2.5507760988     -2.0135758773     0.3492914092
C     -1.7502420256     -2.576793465     -0.7034192808
C     -3.1569361402     -0.7264516989     0.1393531289
C     -1.7919384159     -1.9684930324     -2.0358832607
C     0.6273123617     -2.3656774485     -2.2644613445
C     1.8610035411     -1.6855384562     -2.3916116269
C     -0.5691607705     -1.8784603873     -2.8466868107
C     2.8359476203     0.5159939245     -2.6612367963
C     2.492189959     1.8505365983     -2.9038169958
C     1.9713988343     -0.5115926784     -3.1775597398
C     0.6523783407     3.2270770428     -2.7094127741
C     1.3117593282     2.2491125734     -3.5862240967
C     -1.417895147     3.3897543687     -1.3969012328
C     -0.7041280821     3.3304683429     -2.6938041893
C     -3.2955693657     1.9598143526     -0.7105870601
C     -2.6964947435     2.9012405517     -1.6171679583
C     -3.5024765273     -0.4140228976     -1.1851341621
C     -2.8161163979     -1.0462580819     -2.3041991388
C     -3.7957887702     0.910838451     -1.5262933276
C     -1.5222185766     2.5402701738     -3.6228513254
C     -2.789760569     2.3796674585     -2.9978655165
C     -2.7160044191     -0.0421079941     -3.3642335249
C     -3.4017435898     1.1362251093     -2.921130366
C     -0.4274028793     -0.8193687877     -3.7921767791
C     0.8352692328     -0.1302306726     -3.95401049
C     0.5208273137     1.2661631101     -4.192738029
C     -1.5077004262     0.1071715588     -4.0578447325
C     -0.9225269972     1.4245989329     -4.2433708493


