70

 C     1.4774051742     -0.0109837566     4.881911528
C     0.7113748604     -1.2562643379     4.7089561463
C     1.5427459108     -2.1866975603     4.104494021
C     2.6864938612     -0.1220471134     4.1043319051
C     2.8033984402     -1.4520496891     3.6936963406
C     2.6691728397     0.896112649     3.0657985713
C     0.7249892155     1.0346733259     4.3554754818
C     1.5056152085     1.7140894235     3.3283781943
C     -0.5210828664     -0.9367329902     4.0310481349
C     -0.5455593737     0.510256849     3.9076400513
C     -1.0023011824     -1.7074310758     2.9289767981
C     1.1192365738     -2.9589746187     3.0104012934
C     -0.1964703024     -2.8188004815     2.432131811
C     3.0820074269     -1.7992054178     2.368159
C     2.237798339     -2.9573455125     2.0761332762
C     2.9686037767     0.589909277     1.7038104493
C     3.2389430663     -0.8056114817     1.3199595181
C     2.485348669     1.4957747966     0.6851483671
C     0.8543829937     2.3804498634     2.305689595
C     1.5110211143     2.5021108401     1.0309864401
C     -1.2310674733     1.139847949     2.8640969343
C     -0.6116302438     2.3088007174     2.2580307614
C     -1.9554049037     -1.0739176688     2.0204692567
C     -2.1449456238     0.3673301259     2.0624439247
C     -2.3701185958     -1.7754955406     0.830185665
C     -0.3984051047     -3.3036002239     1.0699512393
C     -1.5184344664     -2.833660743     0.2807799948
C     2.0672846538     -3.3635116237     0.8089216698
C     0.7521178989     -3.7952050697     0.3561246201
C     3.0455195782     -1.227484686     -0.0479069409
C     2.6898707898     -2.6126083523     -0.2770613733
C     2.5928735882     1.1265697921     -0.7255053936
C     2.7229252399     -0.269387431     -1.1028373099
C     2.1474039306     2.0348938505     -1.6939880738
C     0.8564897589     3.2875782393     0.0013252155
C     1.375906592     3.2237928956     -1.3284726769
C     -1.2474219678     2.9179740237     1.1907250686
C     -0.5130621924     3.6021935743     0.1469483177
C     -2.8350597633     1.0541584471     0.989403567
C     -2.4205368871     2.3669385487     0.6074486149
C     -3.29046041     -1.1166651804     -0.0411550464
C     -3.4947819878     0.2948991634     0.0105875577
C     -3.3905780816     -1.4682070521     -1.4250817169
C     -1.4640786828     -2.9509268629     -1.1780977564
C     -2.3482567322     -2.1841791728     -1.9987440931
C     0.8204553759     -3.75092867     -1.0445606538
C     2.0064449915     -2.985182547     -1.4228230956
C     -0.2411153079     -3.274635149     -1.8161223362
C     2.0664265759     -0.6925852947     -2.3348194969
C     1.6302374564     -2.05355339     -2.4264184603
C     0.298770767     -2.3471271848     -2.8250165646
C     1.6970706763     1.6225429432     -3.0012220038
C     1.3967057934     0.2494356118     -3.2115916192
C     0.5979877699     3.6183449609     -2.4213527705
C     0.8314278164     2.6421708712     -3.4912135237
C     -1.3831344338     3.7214399225     -1.00096492
C     -2.5310969019     2.8816578559     -0.7553808979
C     -0.8245988306     3.7993868972     -2.2922812723
C     -3.6750085929     0.8170199099     -1.3619895483
C     -3.6371497656     -0.2831630416     -2.2142688181
C     -3.1043182716     2.077251927     -1.7756071284
C     -1.8916736914     -1.4602484636     -3.2052374014
C     -0.5057857675     -1.3756333593     -3.4608249478
C     0.1087994259     -0.1032454572     -3.8384690229
C     -2.7273149391     -0.2977142573     -3.3418896685
C     -0.3883744941     2.3112639523     -4.0520451499
C     -1.4449531576     3.0445394123     -3.3410690421
C     -2.4972274619     2.1452435219     -3.0925669167
C     -0.7856121089     0.9478575512     -4.191422817
C     -2.1862355824     0.8845007385     -3.8025608134


