70

 C     1.2067254523     0.1308423642     4.8753043294
C     2.4120331685     -0.1003390602     4.2199770658
C     2.4478504559     -1.5191272274     3.8177506028
C     0.3709399625     -1.1064983724     4.7341226546
C     1.1425512937     -2.0852586621     4.0547819075
C     -0.8947833176     -0.7102269648     4.2429557139
C     0.4274695702     1.2302346805     4.5232491074
C     -0.9282680612     0.7309484523     4.27537791
C     0.7790237968     2.0549617648     3.4095582446
C     2.778954222     0.679333292     3.0802950949
C     1.9464920546     1.7648096367     2.6231644917
C     3.0229105669     -1.6092833523     2.5559170828
C     3.2979924544     -0.2385493085     2.0956432093
C     2.5281050791     -2.5659688908     1.5971852674
C     0.5275159284     -2.8449732255     3.0187661204
C     1.2732431204     -3.1852033253     1.8459482709
C     -1.4912468197     -1.3892568792     3.0928339834
C     -0.8056413062     -2.516264353     2.5778171412
C     -2.3119463642     -0.6370619986     2.1622003582
C     -1.4783973532     1.4314680706     3.2207031225
C     -0.4638700422     2.3494347855     2.7096108421
C     -2.3097633811     0.7950330834     2.2538725124
C     -0.4984325109     2.774502446     1.3961810368
C     1.9060011786     2.0640191315     1.1901832427
C     0.7605539827     2.7882667317     0.6653350528
C     3.3143467263     0.0628814574     0.7303102825
C     2.7018098058     1.3027614578     0.245413907
C     2.8606999836     -2.3219367664     0.2502952135
C     3.3626371377     -1.0549145718     -0.1660059311
C     2.081622557     -2.8512119861     -0.8586165051
C     0.3392265311     -3.3338339487     0.7256097178
C     -0.9091060203     -2.8732179739     1.1600167843
C     0.719670723     -3.1887807918     -0.6352848695
C     -2.6512000671     -1.2144368068     0.8542189906
C     -1.8390985093     -2.2604082871     0.271231595
C     -3.4084573776     -0.4448520737     -0.0183657237
C     -2.6516090705     1.6061126638     1.1163914554
C     -1.759231259     2.6324938243     0.6584719653
C     -3.5333902849     1.0057696539     0.1800144252
C     -1.841443943     3.0709383686     -0.7215300546
C     0.6743073518     3.0238387391     -0.708819046
C     -0.5932121586     3.2834290323     -1.3928747907
C     2.5017454353     1.4565076122     -1.1843033809
C     1.5842047994     2.4398527799     -1.6244835916
C     3.1027880938     -0.9027406933     -1.5699797873
C     2.4222135355     -2.1045380983     -2.0135324842
C     2.7734329115     0.351452274     -2.119354609
C     1.5389424504     -2.0506676686     -3.0806459343
C     -0.3051451155     -2.7972137113     -1.618065797
C     -1.6123356475     -2.3109138848     -1.1575344474
C     0.1441056925     -2.4007591349     -2.8944747089
C     -3.4472044724     -0.6901273979     -1.4335898406
C     -2.4472406295     -1.4943512114     -2.0475922933
C     -3.8077526832     1.6043526404     -1.0321278432
C     -2.9571409323     2.6526772942     -1.5322422542
C     -3.883340771     0.5453130932     -2.0463830744
C     -2.7635924099     2.3755278273     -2.9204104453
C     -3.2930671214     1.0163223358     -3.1881039554
C     -0.4152760251     2.9755851959     -2.7729101916
C     0.9190937659     2.4070948447     -2.9231516213
C     -1.4992172012     2.437275865     -3.5123509775
C     2.0976383061     0.3287902593     -3.4029342441
C     1.5697233902     -0.8879546962     -3.8833973646
C     1.1625680245     1.3737351155     -3.7997502088
C     -0.6501983588     -1.5215351122     -3.7550666887
C     -1.9334477585     -1.0528460602     -3.3598174054
C     -2.3031529148     0.2478561477     -3.8702672951
C     -1.2737903165     1.1884962828     -4.2721101096
C     0.2444700668     -0.65616492     -4.4306870045
C     0.0173906288     0.7384982313     -4.4839442031


