70

 C     1.5490070462     0.0125278816     4.6625481154
C     0.7279046653     -1.1580566935     4.553230005
C     1.2175705159     -1.9880025178     3.4856448215
C     2.4884544403     -0.021550565     3.6375329858
C     2.3436983674     -1.2709685845     2.9055557181
C     2.4312877212     1.2171634329     2.8765808734
C     0.6820170399     1.1564922275     4.3845759224
C     1.249906683     1.9321722909     3.3344944267
C     -0.6383415317     -0.7509614526     4.5134172994
C     -0.652836141     0.7224817579     4.2677314475
C     -1.5434952706     -1.5462524531     3.8351208834
C     0.3087024029     -2.6711856354     2.6263042031
C     -1.0843969612     -2.5815857038     2.9350270898
C     0.6935470095     -2.9068531741     1.2344138098
C     2.584277678     -1.2947960665     1.5350005125
C     1.8831689966     -2.2762600543     0.7071316694
C     2.8063234643     1.2344543942     1.5391834681
C     3.0788234848     -0.0546659737     0.8927204887
C     2.3355586788     2.341734166     0.7230756638
C     0.4406700461     2.5468796741     2.3531299235
C     1.1352576879     2.9938113527     1.1655040034
C     -1.4979622804     1.2673778095     3.2281907002
C     -0.9720653321     2.2288971083     2.2941408281
C     -2.669579091     -0.9055907379     3.1953446185
C     -2.5833985348     0.4357615419     2.7814114552
C     -2.0610632248     -2.6671019696     1.8631774422
C     -3.0511651153     -1.6857513198     2.0609712455
C     -0.3194892036     -3.3574992895     0.2847006835
C     -1.7144753547     -3.0442653721     0.5447542639
C     0.0456109983     -3.5298906291     -1.0697457356
C     2.1109460217     -2.2308246373     -0.7273060853
C     1.2594023361     -2.9268583149     -1.6019912768
C     3.2290459322     -0.0361854026     -0.4798003494
C     2.8258001122     -1.1412418504     -1.3031578219
C     2.6976861702     2.3990394441     -0.6899153354
C     3.1564986727     1.1838146877     -1.2702652362
C     2.0215505923     3.3218350853     -1.5622054534
C     0.3397955377     3.6557826838     0.1890591938
C     0.8360721939     3.9751206602     -1.0680617386
C     -1.6520694001     2.4311154111     1.0025715527
C     -1.0612583226     3.2616400116     0.0692666235
C     -3.0875535885     0.5062308636     1.3967213233
C     -3.4052953998     -0.8219654975     0.9711545914
C     -2.6136417715     1.4554504052     0.490025623
C     -2.5470870697     -2.5413649663     -0.543511817
C     -3.1924057213     -1.229951669     -0.3424889159
C     -0.9243154229     -3.502916452     -2.0865119485
C     -2.1827848269     -2.8838085488     -1.8547349018
C     1.0125107472     -2.4749812922     -2.9526132545
C     -0.3211170539     -2.8838733416     -3.2714109986
C     2.5270712073     -0.6337777362     -2.6052284274
C     2.7945671796     0.7953912119     -2.6032393603
C     1.5021302929     -1.2116250511     -3.4036851389
C     1.7429496005     2.9507280779     -2.9114427001
C     2.0169115201     1.6540217517     -3.3885495584
C     -0.2330699812     3.7885951522     -2.0406247963
C     -1.3516015115     3.1826601591     -1.3575217059
C     0.3180915964     3.2013059432     -3.1632825119
C     -2.6753156039     1.1507053651     -0.9439652826
C     -3.0104174026     -0.1867867147     -1.3459800023
C     -2.0068741806     2.059766262     -1.8949615978
C     -2.4187683566     -1.9678434129     -2.9524096622
C     -1.2282612331     -1.9890331059     -3.8080633544
C     -2.6614185346     -0.6245102574     -2.6733177138
C     0.5610046747     -0.2854389549     -4.0793488796
C     0.7991902952     1.101719079     -4.0090291986
C     -0.2673748914     2.0337461344     -3.72284805
C     -1.5030756639     1.5327720279     -3.1742209298
C     -0.8253753994     -0.6551624888     -4.1235062434
C     -1.7956622721     0.2081938423     -3.5144675028


