70

 C     1.417448694     0.194390273     5.1927145247
C     0.6396887163     -0.9883571614     4.9008188224
C     1.4492832744     -1.9314806732     4.2418006002
C     2.6297109413     0.0756764844     4.4099802313
C     2.7240253639     -1.2454363402     3.9287536535
C     2.7234451378     1.1755724636     3.4553665222
C     0.7024297375     1.2714348118     4.6199752572
C     1.551984973     2.0000596834     3.6987722315
C     -0.5934497524     -0.5970906156     4.2474514391
C     -0.5891475015     0.8522525459     4.1311934064
C     -1.1188834395     -1.3451413981     3.1723059851
C     1.0134527096     -2.5727487846     3.06460467
C     -0.3128237853     -2.4034780153     2.5689837461
C     3.0351157389     -1.4915922251     2.5821702385
C     2.0607944058     -2.44877455     2.0681354902
C     3.1597954132     0.9659802574     2.1138192388
C     3.4316971223     -0.415886967     1.7131665316
C     2.6837141008     1.8850696313     1.0590234566
C     0.9577661857     2.6829575034     2.6592961601
C     1.6165849489     2.7667440647     1.3773911967
C     -1.1812776728     1.5100678183     3.0083468117
C     -0.4582884215     2.5836474809     2.4102924588
C     -2.0947225366     -0.6723126184     2.3205738965
C     -2.0905222219     0.7680924728     2.1647585488
C     -2.6284310598     -1.4413543124     1.2872281266
C     -0.5765138017     -2.7848043095     1.1919843196
C     -1.865874335     -2.5275270552     0.7232434934
C     1.8114966375     -2.5951777357     0.6887208078
C     0.4824819997     -2.9010468077     0.1960874576
C     3.3970744022     -0.7195137054     0.3465369047
C     2.6812711123     -1.8845036498     -0.1667268566
C     2.8490806467     1.5775162487     -0.3534431299
C     3.3272798419     0.2713826096     -0.6663837768
C     2.0408119048     2.2365229529     -1.3760498692
C     0.6218254913     3.0798352598     0.3994192915
C     -0.6620296957     2.8837571293     1.030303318
C     0.8094813444     2.8866352598     -0.9774789873
C     -2.5302136351     1.3175414257     0.8897883601
C     -1.7384176591     2.374217565     0.2882464105
C     -3.4153272058     -0.8806008237     0.2380819772
C     -3.3555088004     0.5211826916     0.0142913483
C     -2.2249261187     -2.6487198181     -0.6537502764
C     -3.378971824     -1.7938760196     -0.8810692172
C     0.1773260562     -2.7593908825     -1.2126982326
C     -1.2181117083     -2.7714354817     -1.6438460195
C     2.3665867135     -1.6880368945     -1.5305905395
C     2.9259291612     -0.3894151561     -1.8872018407
C     1.1610704589     -2.1425404161     -2.1086975889
C     2.0620792901     1.717104858     -2.7070850701
C     2.4179783306     0.3156318847     -2.9232995749
C     1.0213418379     1.9765010261     -3.5955325153
C     -0.3875530986     2.8502396468     -1.8104790058
C     -1.676249587     2.555353872     -1.1662177469
C     -0.2298022413     2.5102955289     -3.178354702
C     -3.5711407247     0.96207039     -1.3398328075
C     -2.7001818725     1.9859311003     -1.9349481325
C     -3.6835380637     -1.3590954152     -2.1561965945
C     -3.921240547     0.0496929523     -2.3476844053
C     -1.5716249415     -2.3284447268     -2.976137513
C     -2.8373155589     -1.7866875891     -3.2387384259
C     0.7470146299     -1.5007001415     -3.3805797822
C     1.4404300594     -0.302692413     -3.8086579981
C     0.7159351637     0.7610940115     -4.3749016443
C     -0.5807483961     -1.6464550444     -3.8285329429
C     -1.2793508516     1.8257382076     -3.9231907547
C     -2.5299660566     1.6681013611     -3.3416065264
C     -3.2715707678     0.4566577878     -3.594147463
C     -2.6454819449     -0.6506456554     -4.1518587768
C     -0.663916205     0.6868023207     -4.6269546941
C     -1.2703105431     -0.5867881785     -4.5407535526


