70

 C     1.5598583521     0.0859667384     4.8822770854
C     0.7712647581     -1.1396796284     4.8373027111
C     1.5183984561     -2.0939698626     4.1504542771
C     2.7064945576     -0.1010285735     3.9907311849
C     2.7396456672     -1.4373422848     3.5988520157
C     2.6735009988     0.888277636     2.9365751967
C     0.7780458883     1.0501492869     4.2513372893
C     1.476765198     1.6822976392     3.1467673977
C     -0.5571300196     -0.847011738     4.2989734297
C     -0.5601116302     0.5545280053     3.9798719938
C     -1.2385542831     -1.7566704305     3.432251785
C     0.9448488435     -2.8900551135     3.1311769973
C     -0.4670356515     -2.8898006753     2.9120809794
C     2.8361340452     -1.8117137693     2.232844585
C     1.80250743     -2.7937009138     1.9685078698
C     2.9916278499     0.5510772399     1.6007430775
C     3.087321577     -0.8467033126     1.2204244616
C     2.5776324043     1.495111124     0.5837170467
C     0.7608818599     2.2180901037     2.0775312734
C     1.4676854804     2.3648329988     0.8210692589
C     -1.2995058601     1.0754915837     2.9043646878
C     -0.6933765536     2.0804052914     2.0314988254
C     -2.3079086261     -1.2050601889     2.6088901768
C     -2.3632687373     0.2351713794     2.389711448
C     -2.8722496829     -2.0369649417     1.581457778
C     -0.8788326079     -3.4640287354     1.6801083508
C     -2.1550519925     -3.175042593     1.1731934478
C     1.3098796229     -3.0065431014     0.6488738765
C     0.011016631     -3.5306105947     0.5385525423
C     2.7702422389     -1.1822771071     -0.1580292958
C     1.8672628063     -2.2548811048     -0.45689449
C     2.969998679     1.2214566026     -0.770284008
C     3.042233932     -0.1829798734     -1.161056936
C     2.6417359705     2.1917066146     -1.7417093859
C     0.8134673987     3.0149945241     -0.2891618665
C     1.5163335344     3.0789880809     -1.5040405131
C     -1.3803064363     2.5049147838     0.8533830364
C     -0.6552109783     3.1356773722     -0.2729195913
C     -3.0698676198     0.740163465     1.2822582093
C     -2.6528129018     1.9207647522     0.6017957332
C     -3.4643863167     -1.4776941841     0.3716760652
C     -3.6451529462     -0.1285128439     0.2728448216
C     -2.1213717797     -3.1980228236     -0.2909719893
C     -0.7769018688     -3.3275682437     -0.6818317489
C     -2.9220106272     -2.1794967678     -0.8062173359
C     1.139277927     -2.2214039737     -1.7229542166
C     -0.2866578176     -2.5814794342     -1.7685653433
C     2.7212892141     -0.5040385936     -2.5011222467
C     1.6429599156     -1.4291534113     -2.7373186298
C     2.608921157     1.8411984199     -3.1242420656
C     2.622987475     0.507937304     -3.4957677422
C     0.816911438     3.2743699768     -2.7750094089
C     1.4560226423     2.496336372     -3.7633492647
C     -1.3204697989     3.3328331842     -1.4976214616
C     -0.5906174737     3.3594584413     -2.764340282
C     -3.1665347845     1.874049547     -0.754501817
C     -3.5870723503     0.5314102237     -1.0134397005
C     -2.5828929552     2.6356584709     -1.7477658161
C     -2.5209820035     -1.4758308424     -1.9763189305
C     -1.212640368     -1.7596854911     -2.5431452008
C     -3.0896263941     -0.1436710073     -2.174334202
C     0.7729934944     -0.8471605184     -3.7714203784
C     1.4247550936     0.261846895     -4.3177164684
C     0.7232531366     1.5040087655     -4.4989227013
C     -0.6672900838     -0.8678724051     -3.5739337204
C     -1.3071601587     2.5607316397     -3.6966168204
C     -2.5068240497     2.0726613975     -3.0461196642
C     -2.5748085186     0.6736682387     -3.2128655992
C     -0.6833353368     1.4943940567     -4.4013496322
C     -1.3861964507     0.2770269382     -3.9802404319


