36
0 1
C       -3.249595   -0.339608   -0.340340 
C       -2.674878   -1.544182   -0.660704 
C       -1.907259   -2.070350    0.513392 
C       -2.855423    0.017109    1.073835 
C       -1.989345   -1.067234    1.563412 
C       -2.365848    1.310689    1.057585 
C       -2.653073    0.718326   -1.230165 
C       -2.315608    1.785139   -0.398175 
C       -1.666631   -1.336586   -1.750734 
C       -1.604284    0.091000   -2.040674 
C       -0.652409   -2.522140    0.035681 
C       -0.506581   -2.049786   -1.396949 
C        0.470805   -2.406873    0.888134 
C       -0.793379   -0.720234    2.229083 
C        0.355448   -1.540729    2.016577 
C       -1.093486    1.678608    1.674717 
C       -0.319411    0.690306    2.285352 
C       -1.089105    2.454790   -0.588889 
C       -0.412615    2.592079    0.761979 
C       -0.317112    0.714084   -2.182471 
C       -0.127448    2.001319   -1.523500 
C        0.736822   -1.534598   -1.817953 
C        0.832340   -0.160030   -2.251513 
C        1.797530   -2.203072    0.306136 
C        1.938676   -1.867438   -1.033778 
C        1.590558   -0.693477    2.086807 
C        1.160567    0.688406    2.143179 
C        2.515448   -1.157546    1.147216 
C        0.945597    2.539727    0.565612 
C        1.187076    2.318623   -0.919705 
C        1.803889    1.604554    1.282673 
C        2.184229    0.305207   -1.850620 
C        2.852594   -0.713905   -1.152774 
C        3.147588   -0.230024    0.250350 
C        2.285686    1.531654   -1.066561 
C        2.788635    1.116191    0.323785 
