36
0 1
C        2.751174    0.751159    0.070125 
C        2.298905    1.283582   -1.124363 
C        1.817251    0.151756   -2.007198 
C        2.751174   -0.751159   -0.070125 
C        2.089569   -1.078484   -1.348183 
C        2.298905   -1.283582    1.124363 
C        2.089569    1.078484    1.348183 
C        1.817251   -0.151756    2.007198 
C        1.078478    2.089558    1.348197 
C        1.283603    2.298890   -1.124369 
C        0.751165    2.751173    0.070124 
C        0.503247    0.503224   -2.490400 
C        0.151769    1.817238   -2.007207 
C       -0.503247   -0.503224   -2.490400 
C        1.078478   -2.089558   -1.348197 
C       -0.151769   -1.817238   -2.007207 
C        1.283603   -2.298890    1.124369 
C        0.751165   -2.751173   -0.070124 
C        0.503247   -0.503224    2.490400 
C        0.151769   -1.817238    2.007207 
C       -0.151769    1.817238    2.007207 
C       -0.503247    0.503224    2.490400 
C       -0.751165    2.751173   -0.070124 
C       -1.078478    2.089558   -1.348197 
C       -1.283603    2.298890    1.124369 
C       -1.817251   -0.151756   -2.007198 
C       -2.089569    1.078484   -1.348183 
C       -1.283603   -2.298890   -1.124369 
C       -0.751165   -2.751173    0.070124 
C       -1.078478   -2.089558    1.348197 
C       -2.298905   -1.283582   -1.124363 
C       -1.817251    0.151756    2.007198 
C       -2.298905    1.283582    1.124363 
C       -2.751174    0.751159   -0.070125 
C       -2.089569   -1.078484    1.348183 
C       -2.751174   -0.751159    0.070125 
