36
0 1
C        3.044175   -0.350658    1.127788 
C        3.406441    0.352179   -0.014898 
C        3.029436   -0.466887   -1.202281 
C        2.397720   -1.643168    0.729163 
C        2.395745   -1.715886   -0.669889 
C        1.139816   -1.731731    1.456626 
C        1.999285    0.409451    1.884818 
C        0.881441   -0.419601    2.133450 
C        2.555368    1.593226   -0.065212 
C        1.810953    1.676697    1.198997 
C        2.020806    0.219984   -1.897274 
C        1.804244    1.545912   -1.270730 
C        1.104526   -1.854693   -1.345445 
C        0.825060   -0.640149   -2.086516 
C        0.077031   -2.373180    0.852412 
C        0.046077   -2.459231   -0.642294 
C       -1.263457   -2.039329    1.292238 
C       -0.463962    0.131370    2.168606 
C       -1.562720   -0.796652    1.882688 
C        0.521608    2.199997    1.172043 
C       -0.606701    1.495375    1.806909 
C        0.494717    2.067178   -1.287328 
C        0.030855    2.709393   -0.108665 
C       -0.497414   -0.103679   -2.168295 
C       -0.659327    1.322732   -1.897854 
C       -1.273536   -2.189757   -1.076827 
C       -2.171840   -2.255618    0.118512 
C       -1.586931   -0.975982   -1.798797 
C       -2.809542   -0.296594    1.217723 
C       -3.082874   -1.231041    0.061851 
C       -2.811948   -0.428278   -1.186192 
C       -1.823634    1.935459    1.076457 
C       -1.422141    2.618639   -0.089027 
C       -1.836157    1.804027   -1.275276 
C       -2.855724    0.982515    0.729630 
C       -2.857396    0.907980   -0.827109 
