50
0 1
C        3.409150    0.692048   -0.824417 
C        3.409159   -0.692045   -0.824407 
C        3.226803   -1.168957    0.597095 
C        3.226796    1.168969    0.597074 
C        3.109280    0.000024    1.436721 
C        2.266473    2.193309    0.607157 
C        2.491631    1.432713   -1.651958 
C        1.889060    2.471614   -0.806818 
C        1.677933    0.731736   -2.547917 
C        2.491643   -1.432725   -1.651937 
C        1.677939   -0.731765   -2.547907 
C        2.266497   -2.193288    0.607197 
C        1.889073   -2.471618   -0.806778 
C        1.269974   -2.236367    1.654122 
C        2.112691    0.000027    2.413186 
C        1.278933   -1.188253    2.595865 
C        1.269970    2.236407    1.654081 
C        1.278938    1.188285    2.595854 
C       -0.010902    2.835402    1.317683 
C        0.630499    2.942019   -1.096166 
C       -0.247936    3.266468    0.012186 
C        0.307250    1.186443   -2.792365 
C       -0.190487    2.298388   -2.137897 
C        0.307255   -1.186484   -2.792346 
C       -0.543740   -0.000025   -2.988586 
C        0.630513   -2.942031   -1.096130 
C       -0.190480   -2.298419   -2.137865 
C       -0.010886   -2.835392    1.317712 
C       -0.247920   -3.266475    0.012234 
C       -1.295443   -2.268965    1.830242 
C        0.015929   -0.705991    3.145514 
C        0.015923    0.706044    3.145494 
C       -1.275840   -1.191828    2.677335 
C       -1.295459    2.268980    1.830211 
C       -1.275843    1.191868    2.677311 
C       -2.118990    0.000019    2.415913 
C       -1.636787    2.916135   -0.390935 
C       -1.594168    2.311604   -1.679332 
C       -2.276151    2.304493    0.727288 
C       -1.859741   -0.000022   -2.583398 
C       -2.418002    1.193716   -1.910804 
C       -1.594156   -2.311633   -1.679300 
C       -1.636772   -2.916148   -0.390897 
C       -2.276143   -2.304497    0.727317 
C       -2.417994   -1.193756   -1.910790 
C       -3.005882    0.000005    1.363889 
C       -3.108591    1.196192    0.495528 
C       -3.256207    0.745343   -0.850403 
C       -3.108588   -1.196200    0.495541 
C       -3.256203   -0.745369   -0.850397 
