50
0 1
C       -3.705203   -0.082919    0.740938 
C       -3.607441    0.725785   -0.375169 
C       -2.888827    1.985103    0.009188 
C       -3.012654    0.648265    1.878983 
C       -2.406581    1.871119    1.336078 
C       -2.246160   -0.250765    2.560779 
C       -3.192418   -1.447865    0.718860 
C       -2.349354   -1.606113    1.910841 
C       -2.711017   -1.949456   -0.475272 
C       -3.010668    0.255392   -1.611898 
C       -2.700815   -1.103372   -1.690507 
C       -2.026855    2.336250   -1.069983 
C       -2.023277    1.243865   -2.066673 
C       -0.839941    2.970653   -0.730493 
C       -1.033367    2.195155    1.634556 
C       -0.345874    2.930964    0.648564 
C       -0.836926   -0.003865    2.824651 
C       -0.242270    1.260408    2.480386 
C       -1.076182   -2.147678    1.866050 
C       -0.145855   -1.223624    2.577515 
C       -1.450842   -2.748659   -0.493151 
C       -0.588177   -2.830756    0.677167 
C       -1.545533   -1.470525   -2.459519 
C       -0.861722   -2.588388   -1.751426 
C       -0.800387    0.853396   -2.670421 
C       -0.567860   -0.548823   -2.865839 
C        0.287410    2.782486   -1.611037 
C        0.373196    1.660047   -2.441097 
C        1.131058    2.915037    0.560509 
C        1.519128    2.871823   -0.793046 
C        1.153873    1.247669    2.404091 
C        1.886059    2.158268    1.491534 
C        1.254477   -1.254472    2.359952 
C        1.926140    0.000469    2.472242 
C        0.787148   -2.890885    0.491681 
C        1.750100   -2.231483    1.426858 
C        0.551262   -2.393895   -1.928792 
C        0.775948   -1.147172   -2.603091 
C        1.389344   -2.772099   -0.855808 
C        1.734895    1.065697   -2.257993 
C        2.442586    1.878188   -1.293895 
C        1.920462   -0.343056   -2.305121 
C        3.060272    1.529018    1.056559 
C        3.159462    0.208990    1.756563 
C        3.330127    1.290229   -0.363307 
C        2.934202   -1.965588    0.708282 
C        2.637692   -2.152427   -0.752897 
C        2.932905   -0.913684   -1.439958 
C        3.620539   -0.736864    0.843246 
C        3.657924   -0.079844   -0.529680 
