50
0 1
C        4.037890   -0.808515   -0.761555 
C        4.102072   -0.617076    0.616886 
C        3.636784    0.755254    0.945453 
C        3.501979    0.424721   -1.400677 
C        3.436567    1.441696   -0.333748 
C        2.317857    0.094683   -2.082042 
C        3.062504   -1.894276   -1.050345 
C        2.062135   -1.358894   -1.888899 
C        3.160014   -1.556645    1.287801 
C        2.649247   -2.446442    0.244169 
C        2.541025    0.650216    1.831981 
C        2.234263   -0.793628    2.031896 
C        1.465929    1.602517    1.802098 
C        2.396686    2.314728   -0.391097 
C        1.617395    2.617728    0.818589 
C        1.181146    0.997863   -2.163195 
C        1.404190    2.266559   -1.504900 
C       -0.152656    0.524903   -2.316317 
C        0.706229   -1.807346   -1.804539 
C       -0.394455   -0.947359   -2.245858 
C        1.338121   -2.828136    0.356593 
C        0.442827   -2.764041   -0.803270 
C        0.859686   -1.199606    2.164744 
C        0.514010   -2.388437    1.489302 
C        0.116827    1.216861    2.230344 
C       -0.193541   -0.211242    2.417124 
C       -0.955786    2.080149    1.903935 
C        0.476496    3.350075    0.363223 
C        0.328322    3.061377   -1.125061 
C       -0.745782    3.156317    0.950079 
C       -1.278731    1.412798   -2.007989 
C       -1.023991    2.658830   -1.351214 
C       -1.765112    2.968566   -0.143119 
C       -2.579998    0.879789   -1.760174 
C       -1.681787   -1.442651   -2.063437 
C       -2.837046   -0.539521   -1.998036 
C       -0.904601   -2.953156   -0.303104 
C       -0.863068   -2.682205    1.139379 
C       -1.967028   -2.507345   -1.065555 
C       -1.532135   -0.639903    2.313033 
C       -1.883898   -1.943229    1.714916 
C       -2.307820    1.579645    1.648794 
C       -2.769193    2.130792    0.336954 
C       -3.359499    1.252401   -0.600136 
C       -2.623143    0.277114    1.964100 
C       -3.800717   -1.014538   -1.091519 
C       -3.198260   -2.170213   -0.371887 
C       -3.125221   -1.836949    0.989184 
C       -4.028646    0.059173   -0.086958 
C       -3.618086   -0.423402    1.154051 
