50
0 1
C       -3.756730   -1.163134   -1.294693 
C       -4.228247   -0.293328   -0.331409 
C       -3.684625    1.065495   -0.599861 
C       -2.832341   -0.409534   -2.202039 
C       -2.819429    0.989414   -1.751240 
C       -1.622747   -1.102814   -2.244639 
C       -2.922069   -2.214847   -0.630364 
C       -1.680511   -2.250105   -1.284359 
C       -3.692061   -0.701753    1.013106 
C       -2.951853   -1.931336    0.810237 
C       -3.150766    1.552435    0.624605 
C       -3.053151    0.413616    1.601718 
C       -2.095480    2.456596    0.547030 
C       -1.579778    1.684610   -1.748762 
C       -1.351844    2.601671   -0.683586 
C       -0.375452   -0.413306   -2.407856 
C       -0.401130    1.009295   -2.310343 
C        0.851989   -1.173362   -2.177496 
C       -0.478446   -2.573752   -0.576608 
C        0.820186   -2.243226   -1.179028 
C       -1.751490   -2.073744    1.498300 
C       -0.589655   -2.639988    0.817496 
C       -1.829492    0.248372    2.354229 
C       -1.245669   -1.027667    2.376319 
C       -1.136830    2.490941    1.642552 
C       -0.906666    1.369738    2.429940 
C        0.025938    3.004597   -0.308695 
C        0.164086    2.953839    1.088867 
C        0.870900    1.661008   -2.199071 
C        1.125696    2.603681   -1.076993 
C        2.074880   -0.505349   -2.410139 
C        2.039207    0.944604   -2.413646 
C        3.284901   -0.894252   -1.718210 
C        1.974568   -2.496677   -0.414246 
C        3.243068   -1.889156   -0.751959 
C        0.572689   -2.288343    1.629139 
C        0.224001   -1.205041    2.475033 
C        1.853163   -2.404786    1.072324 
C        0.574844    1.182021    2.516941 
C        1.221177    2.185170    1.691249 
C        1.143286   -0.101141    2.612946 
C        2.368285    2.267867   -0.462322 
C        3.081714    1.419055   -1.426584 
C        3.861424    0.365257   -1.056879 
C        2.406956    1.904994    0.945500 
C        3.843575   -1.333873    0.514660 
C        2.870413   -1.568170    1.579514 
C        2.479014   -0.274998    2.127586 
C        4.016822    0.052732    0.360719 
C        3.143681    0.746676    1.331018 
