50
0 1
C       -3.299104   -2.122950    0.000627 
C       -3.319000   -1.224950   -1.198460 
C       -3.582081    0.059951   -0.763067 
C       -3.318589   -1.224851    1.199641 
C       -3.581830    0.060024    0.764243 
C       -2.075771   -1.452600    1.936420 
C       -2.076023   -2.784659    0.000455 
C       -1.344254   -2.496119    1.243258 
C       -2.076411   -1.452752   -1.935621 
C       -1.344678   -2.496160   -1.242624 
C       -1.363094   -0.349150   -2.498281 
C       -2.793735    1.189680   -1.186768 
C       -1.748639    1.022468   -2.131073 
C       -2.793339    1.189768    1.187603 
C       -2.579994    2.026972    0.000344 
C       -1.362275   -0.348951    2.498745 
C       -1.747923    1.022634    2.131575 
C       -0.009034   -0.620239    2.807401 
C        0.057596   -2.561865    1.255485 
C        0.658048   -1.796069    2.299767 
C        0.057202   -2.561944   -1.255279 
C        0.811184   -2.785814   -0.000020 
C       -0.009979   -0.620469   -2.807333 
C        0.657303   -1.796291   -2.299829 
C        1.003125    0.458686   -2.872919 
C       -0.732970    2.047294   -2.129957 
C        0.681861    1.716267   -2.412424 
C       -1.582597    2.987139    0.000127 
C       -0.734385    3.067632   -1.168114 
C       -0.732269    2.047489    2.130035 
C       -0.734000    3.067728    1.168100 
C        1.004085    0.458929    2.872558 
C        0.682659    1.716475    2.412080 
C        2.077702   -1.538563    2.247166 
C        2.274104   -0.069253    2.494974 
C        2.194692   -2.539915   -0.000257 
C        2.823340   -1.912356    1.158838 
C        2.076958   -1.538750   -2.247729 
C        2.273283   -0.069460   -2.495722 
C        2.822949   -1.912447   -1.159597 
C        3.042325    0.474141    1.436520 
C        3.564978   -0.672517    0.679538 
C        3.041853    0.474022   -1.437577 
C        3.564742   -0.672576   -0.680661 
C        1.539859    2.361079   -1.417413 
C        0.678385    3.263278   -0.690132 
C        0.678608    3.263334    0.689630 
C        1.540322    2.361193    1.416714 
C        2.567282    1.642712   -0.741695 
C        2.567528    1.642774    0.740708 
