50
0 1
C       -3.738432   -0.785264   -0.275990 
C       -3.784022    0.279649    0.684631 
C       -3.365750    1.544593   -0.041681 
C       -3.322248   -0.217392   -1.529313 
C       -2.914046    1.167113   -1.323316 
C       -2.401620   -1.113951   -2.158267 
C       -2.910965   -1.974125   -0.020369 
C       -2.302310   -2.301365   -1.248696 
C       -2.095119   -2.037720    1.196487 
C       -3.029756    0.201743    1.837169 
C       -2.089438   -0.895951    2.073422 
C       -2.507716    2.301433    0.861671 
C       -2.260341    1.476885    2.032634 
C       -1.422206    2.931346    0.321769 
C       -1.600936    1.582009   -1.804519 
C       -1.075363    2.720686   -1.113504 
C       -1.102455   -0.727352   -2.493528 
C       -0.653494    0.645550   -2.363618 
C       -0.945604   -2.763921   -1.328162 
C       -0.175587   -1.836779   -2.143140 
C       -0.879406   -2.732981    1.134100 
C       -0.372170   -3.266123   -0.155893 
C        0.298234   -2.293153    1.887461 
C       -0.859508   -0.315313    2.518557 
C       -0.954415    1.158022    2.419103 
C        0.395397   -0.961062    2.379504 
C       -0.146606    2.962505    1.052990 
C        0.177764    1.924605    1.968634 
C        0.267526    3.042353   -1.274752 
C        0.831690    3.389074    0.090095 
C        0.785873    0.860754   -2.305078 
C        1.207564    2.165271   -1.916047 
C        1.197945   -1.639470   -1.947988 
C        1.735864   -0.267572   -2.108473 
C        1.034231   -3.299493   -0.119623 
C        1.459311   -2.885638    1.268125 
C        1.834879   -2.574171   -1.048291 
C        2.636217   -2.194524    1.180440 
C        3.011098   -2.143592   -0.298857 
C        1.620761   -0.158816    2.192682 
C        1.503830    1.300190    1.942592 
C        2.761888   -0.840424    1.700592 
C        2.115527    2.933458    0.162545 
C        2.464430    2.354031   -1.202946 
C        2.501005    1.942689    1.156929 
C        3.001747   -0.008481   -1.539173 
C        3.572096   -0.935734   -0.553016 
C        3.657208   -0.173387    0.765578 
C        3.312650    1.307907   -1.008990 
C        3.524780    1.151885    0.495517 
