50
0 1
C       -3.714682   -0.916729    0.371945 
C       -3.048319   -1.076731    1.612247 
C       -2.712820    0.294119    2.129191 
C       -3.745097    0.566742    0.054035 
C       -3.123798    1.262932    1.165836 
C       -3.268192    0.731325   -1.269687 
C       -3.225056   -1.594864   -0.746057 
C       -2.945254   -0.576789   -1.822009 
C       -2.078680   -2.450022   -0.650449 
C       -1.890203   -1.879214    1.723304 
C       -1.435651   -2.661678    0.610242 
C       -1.383928    0.255326    2.626776 
C       -0.885514   -1.105665    2.495623 
C       -0.493856    1.370390    2.416261 
C       -2.226829    2.324737    0.884015 
C       -0.941382    2.407285    1.538515 
C       -2.339945    1.770471   -1.547108 
C       -2.027915    2.671055   -0.506375 
C       -1.101157    1.490144   -2.317874 
C       -1.702157   -0.851575   -2.386165 
C       -1.242250   -2.142712   -1.826115 
C       -0.718424    0.188982   -2.648380 
C        0.085622   -2.456435   -1.831431 
C       -0.037712   -2.982965    0.579748 
C        0.620655   -3.099538   -0.656102 
C        0.493854   -1.370403    2.416259 
C        0.941386   -2.407294    1.538502 
C        0.885517    1.105647    2.495625 
C        1.383925   -0.255338    2.626774 
C        1.890205    1.879202    1.723313 
C        0.037714    2.982963    0.579764 
C       -0.620654    3.099540   -0.656087 
C       -0.085623    2.456444   -1.831420 
C        1.435654    2.661675    0.610254 
C        1.242248    2.142721   -1.826108 
C        2.078681    2.450027   -0.650440 
C        0.718422   -0.188972   -2.648382 
C        1.101154   -1.490134   -2.317882 
C        1.702156    0.851587   -2.386164 
C        2.027916   -2.671053   -0.506389 
C        2.226826   -2.324739    0.884008 
C        2.339944   -1.770465   -1.547115 
C        2.712820   -0.294130    2.129187 
C        3.048320    1.076723    1.612253 
C        3.123794   -1.262934    1.165834 
C        3.225058    1.594871   -0.746053 
C        2.945254    0.576800   -1.822011 
C        3.268194   -0.731319   -1.269689 
C        3.714684    0.916730    0.371950 
C        3.745099   -0.566741    0.054032 
