50
0 1
C       -2.344333    2.674311   -0.199098 
C       -1.461070    3.132789    0.770115 
C       -0.159605    3.438855    0.099963 
C       -1.604513    2.634296   -1.512902 
C       -0.225323    3.053032   -1.252444 
C       -1.904559    1.438918   -2.143905 
C       -3.038907    1.425416   -0.041979 
C       -2.893144    0.681820   -1.314682 
C       -2.897232    0.733669    1.162846 
C       -1.178795    2.349252    1.949154 
C       -1.926325    1.189465    2.160285 
C        0.899501    2.999080    0.975819 
C        0.282633    2.315791    2.130087 
C        2.048073    2.494952    0.405765 
C        0.864143    2.298529   -1.833910 
C        2.082393    2.219818   -1.059640 
C       -0.850302    0.703747   -2.773996 
C        0.540098    1.184307   -2.641266 
C       -0.850509   -0.703479   -2.774018 
C       -2.893315   -0.681032   -1.314697 
C       -1.904915   -1.438396   -2.143894 
C       -2.897423   -0.732899    1.162848 
C       -3.039266   -1.424586   -0.041997 
C       -1.277912    0.000170    2.719437 
C       -1.926635   -1.188947    2.160286 
C        0.891921    1.184116    2.641425 
C        0.087094   -0.000022    2.956811 
C        2.799185    1.435118    1.084107 
C        2.189030    0.731053    2.127980 
C        2.983188    1.168308   -1.273852 
C        3.498709    0.690160    0.065765 
C        1.384179   -0.000219   -2.684281 
C        0.539746   -1.184433   -2.641285 
C        2.628575   -0.000353   -2.042984 
C        0.863530   -2.298756   -1.833901 
C       -1.605207   -2.633839   -1.512905 
C       -2.345049   -2.673673   -0.199113 
C       -0.226138   -3.052952   -1.252431 
C       -1.179437   -2.348949    1.949146 
C       -1.461928   -3.132391    0.770105 
C       -0.160543   -3.438846    0.099955 
C        0.891597   -1.184383    2.641420 
C        2.188837   -0.731665    2.127982 
C        0.281994   -2.315878    2.130085 
C        0.898686   -2.999351    0.975839 
C        3.498505   -0.691092    0.065754 
C        2.982863   -1.169082   -1.273855 
C        2.081789   -2.220386   -1.059711 
C        2.798760   -1.435882    1.084075 
C        2.047355   -2.495482    0.405692 
