50
0 1
C       -3.799579   -1.261122   -0.478377 
C       -3.954256    0.157803   -0.034858 
C       -3.530816    0.240575    1.289882 
C       -3.119420   -1.991898    0.631474 
C       -2.987470   -1.117009    1.695774 
C       -1.893101   -2.573521    0.079316 
C       -2.923105   -1.260403   -1.568420 
C       -1.803280   -2.162654   -1.296420 
C       -3.279609    0.991550   -1.026012 
C       -2.591656    0.115653   -1.980892 
C       -2.600259    2.127172   -0.567593 
C       -2.559106    1.223259    1.719873 
C       -2.201254    2.237121    0.853362 
C       -1.705657   -0.892601    2.332604 
C       -1.483499    0.524132    2.454030 
C       -0.699909   -2.635499    0.866296 
C       -0.611943   -1.774694    2.062480 
C        0.474717   -2.892954    0.145948 
C       -0.551637   -1.948654   -1.915648 
C        0.517136   -2.647715   -1.291093 
C       -1.301991    0.398910   -2.475488 
C       -0.285935   -0.672867   -2.594338 
C       -1.492689    2.571530   -1.342399 
C       -0.820881    1.734717   -2.264220 
C       -0.827942    2.783947    0.899324 
C       -0.473495    3.148109   -0.420447 
C       -0.167554    1.048979    2.541843 
C        0.182697    2.246678    1.762225 
C        0.647639   -1.312439    2.470512 
C        0.841553    0.084173    2.815270 
C        1.820361   -2.589943    0.684341 
C        1.906618   -1.810339    1.863143 
C        1.870014   -2.334546   -1.641613 
C        2.693895   -2.300105   -0.385319 
C        1.058991   -0.305342   -2.767984 
C        2.128982   -1.190551   -2.373650 
C        0.622490    2.027500   -2.157687 
C        0.817782    2.893741   -0.964394 
C        1.534882    1.060953   -2.446733 
C        1.529383    2.403937    1.326362 
C        1.848462    2.633355   -0.080019 
C        2.227735    0.402527    2.562171 
C        2.883481   -0.798234    1.934301 
C        2.559631    1.520354    1.830463 
C        3.509310   -1.104270   -0.415215 
C        3.186430   -0.400933   -1.647192 
C        2.796774    0.945270   -1.665785 
C        2.947501    1.716031   -0.472459 
C        3.619685   -0.349702    0.770224 
C        3.439895    1.090021    0.683038 
