50
0 1
C       -4.344397   -0.376087    0.088945 
C       -3.857727   -1.641747   -0.095061 
C       -3.012099   -1.659032   -1.339137 
C       -3.847452    0.495092   -1.040003 
C       -2.910741   -0.303298   -1.856915 
C       -3.382925    1.657596   -0.463542 
C       -3.740180    0.187083    1.356692 
C       -3.299081    1.469260    1.052774 
C       -2.924526   -1.981010    1.031021 
C       -2.771554   -0.763193    1.872360 
C       -1.830831   -2.322916   -1.020972 
C       -1.789790   -2.526000    0.470931 
C       -0.614110   -1.960471   -1.654008 
C       -1.631969    0.210508   -2.211300 
C       -0.476261   -0.693883   -2.282450 
C       -2.142492    2.242534   -0.880074 
C       -1.339740    1.606613   -1.868930 
C       -2.010467    1.921883    1.456255 
C       -1.483078    2.724264    0.337435 
C       -1.465710   -0.342659    2.227185 
C       -1.098054    1.065812    2.124341 
C       -0.516263   -2.390622    1.126440 
C       -0.360767   -1.319777    2.098761 
C        0.535847   -2.629351   -1.092848 
C        0.582548   -2.824420    0.394991 
C        1.797331   -2.332234   -1.533108 
C        0.904568   -0.184571   -2.469037 
C        2.043471   -1.048541   -2.202171 
C        0.008341    2.065300   -1.941439 
C        1.133596    1.186875   -2.324737 
C       -0.162728    3.064064    0.301926 
C        0.494879    2.969481   -0.973843 
C        0.314147    1.472721    2.128864 
C        0.762549    2.531522    1.316838 
C        0.945263   -0.949495    2.401726 
C        1.305383    0.490100    2.494183 
C        1.940225   -2.570415    0.821290 
C        2.758590   -2.439224   -0.376747 
C        2.117238   -1.656759    1.874869 
C        3.253275   -0.549064   -1.674369 
C        3.691152   -1.424066   -0.511738 
C        2.344943    1.697699   -1.651079 
C        1.923148    2.693216   -0.719085 
C        2.099787    2.508840    0.688473 
C        3.371960    0.822451   -1.245899 
C        2.648226    0.636314    2.145130 
C        3.207590   -0.705712    1.775940 
C        3.953988   -0.563566    0.602599 
C        3.065749    1.579478    1.112457 
C        3.809150    0.859406    0.126064 
