50
0 1
C        4.123148   -0.290933   -0.725004 
C        3.863590   -1.509677   -0.138988 
C        3.358147   -1.270841    1.250653 
C        3.822579    0.791020    0.259004 
C        3.297319    0.168774    1.469747 
C        3.032545    1.745714   -0.406029 
C        3.169257   -0.089892   -1.868635 
C        2.560759    1.173879   -1.717616 
C        2.741980   -2.175274   -0.882522 
C        2.333167   -1.264378   -1.954720 
C        2.181045   -2.029676    1.388622 
C        1.780140   -2.576040    0.050455 
C        1.143369   -1.525889    2.182719 
C        2.142467    0.736240    2.104927 
C        1.134281   -0.161533    2.591711 
C        2.098320    2.475674    0.346389 
C        1.642315    1.985039    1.616814 
C        0.965413    3.030949   -0.354835 
C        1.205895    1.357059   -2.135445 
C        0.482151    2.469146   -1.535430 
C        0.956676   -1.115643   -2.221921 
C        0.451870    0.212092   -2.530796 
C        0.393069   -2.609684   -0.311652 
C        0.043583   -2.066126   -1.583066 
C       -0.233610   -1.975808    1.969520 
C       -0.607736   -2.603464    0.759254 
C       -0.284967    0.224657    2.768300 
C       -1.089449   -0.977163    2.574929 
C        0.210298    2.363852    1.750900 
C       -0.156488    3.101867    0.621563 
C       -0.767364    1.470176    2.338766 
C       -1.002474    2.473718   -1.473219 
C       -1.391529    2.866892   -0.099718 
C       -0.984223    0.343908   -2.684639 
C       -1.720805    1.509369   -2.112707 
C       -1.348549   -1.971282   -1.908699 
C       -1.809232   -0.758858   -2.595087 
C       -1.995063   -2.548287    0.404908 
C       -2.334815   -2.357398   -0.998151 
C       -2.434394   -0.893335    2.198238 
C       -2.911921   -1.801995    1.190626 
C       -2.123695    1.539303    1.837842 
C       -2.411550    2.207209    0.535969 
C       -2.966158    0.420171    1.916671 
C       -2.996689    1.007637   -1.555090 
C       -3.121504   -0.365571   -1.968328 
C       -3.483205   -1.374423   -1.065139 
C       -3.826941   -1.028641    0.268370 
C       -3.337460    1.349784   -0.230780 
C       -3.793559    0.317681    0.661319 
