50
0 1
C       -3.165087   -1.635860   -1.339615 
C       -3.672800   -0.715313   -0.308731 
C       -3.433414    0.631650   -0.792034 
C       -2.385725   -0.906208   -2.251766 
C       -2.517618    0.524483   -1.951360 
C       -1.055127   -1.518323   -2.375609 
C       -2.292982   -2.618348   -0.669144 
C       -1.081847   -2.690828   -1.447101 
C       -3.122694   -1.126080    0.937939 
C       -2.221569   -2.291661    0.712072 
C       -2.720660   -0.126839    1.852158 
C       -3.223410    1.630227    0.160917 
C       -2.970011    1.221461    1.533584 
C       -2.261421    2.653419   -0.160611 
C       -1.383253    1.329743   -2.065553 
C       -1.357705    2.502892   -1.221159 
C        0.081809   -0.743773   -2.492021 
C       -0.081804    0.743768   -2.492021 
C        1.383254   -1.329748   -2.065550 
C        0.056898   -3.033921   -0.774946 
C        1.357702   -2.502897   -1.221155 
C       -0.970611   -2.408149    1.402817 
C        0.058350   -3.076071    0.687360 
C       -1.391532   -0.218780    2.510098 
C       -0.563639   -1.350432    2.349780 
C       -1.811175    2.028096    2.042660 
C       -1.438635    2.938723    1.079809 
C       -0.825184    1.109410    2.580443 
C       -0.056901    3.033920   -0.774946 
C       -0.058354    3.076069    0.687355 
C        1.055130    1.518319   -2.375612 
C        1.081848    2.690829   -1.447104 
C        2.517624   -0.524486   -1.951357 
C        2.385729    0.906205   -2.251767 
C        3.433415   -0.631649   -0.792032 
C        2.261419   -2.653422   -0.160607 
C        1.438633   -2.938726    1.079814 
C        3.223411   -1.630229    0.160920 
C        0.825182   -1.109410    2.580444 
C        1.811175   -2.028094    2.042664 
C        2.970012   -1.221459    1.533588 
C        0.563640    1.350434    2.349785 
C        0.970608    2.408150    1.402814 
C        1.391530    0.218788    2.510098 
C        2.720658    0.126844    1.852159 
C        2.292981    2.618350   -0.669148 
C        3.165091    1.635860   -1.339613 
C        3.672801    0.715316   -0.308729 
C        2.221567    2.291666    0.712074 
C        3.122691    1.126085    0.937938 
