50
0 1
C        3.772800    0.000169   -0.000094 
C        3.253083   -0.171118    1.341219 
C        2.531702    1.000993    1.738045 
C        3.252924    1.247436   -0.522483 
C        2.602598    1.935254    0.586209 
C        2.531579    1.004934   -1.735890 
C        3.253005   -1.075923   -0.819129 
C        2.602612   -0.459721   -1.969101 
C        2.602805   -1.475225    1.382625 
C        2.531796   -2.005585   -0.002426 
C        1.527207   -1.602145    2.212188 
C        1.334740    0.889199    2.506520 
C        1.003883   -0.437172    2.936675 
C        0.234986    1.841955    2.283996 
C        1.526898    2.717068    0.281340 
C        0.380447    2.810506    1.221148 
C        1.334503    1.726259   -2.023344 
C        1.003583    2.761911   -1.089772 
C        0.234838    1.057052   -2.737174 
C        1.526955   -1.114733   -2.493740 
C        0.380425   -0.347661   -3.044544 
C        1.334751   -2.615302   -0.483377 
C        1.003778   -2.324622   -1.847026 
C        0.380736   -2.462828    1.823324 
C        0.235141   -2.899011    0.453129 
C       -0.338466   -0.762604    3.286195 
C       -0.721949   -2.047357    2.576131 
C       -1.101290    1.453672    2.566882 
C       -1.368759    0.152423    3.126333 
C       -2.194360    1.712874    1.616975 
C       -0.722315    3.254623    0.484977 
C       -0.338872    3.227219   -0.982688 
C       -2.018286    2.630747    0.599650 
C       -1.101492    1.496046   -2.542332 
C       -1.369033    2.631152   -1.695166 
C       -2.444967    2.251856   -0.739693 
C       -2.194452    0.543706   -2.291824 
C       -2.892967    0.949891   -1.052765 
C       -0.722265   -1.207360   -3.061033 
C       -0.338709   -2.464644   -2.303506 
C       -2.018272   -0.796229   -2.578057 
C       -1.101197   -2.949872   -0.024420 
C       -1.368796   -2.783752   -1.431034 
C       -2.444859   -1.766737   -1.580230 
C       -2.018002   -1.834762    1.978646 
C       -2.444660   -0.485391    2.320263 
C       -2.892844    0.436732    1.349275 
C       -3.133930   -0.000108    0.000152 
C       -2.194195   -2.256857    0.675121 
C       -2.892838   -1.386958   -0.296171 
