50
0 1
C        3.293916   -2.067280    0.062191 
C        2.169835   -2.861836    0.219609 
C        1.452739   -2.458665    1.455673 
C        3.317527   -1.051878    1.142835 
C        2.148045   -1.277805    1.968796 
C        3.543901    0.212320    0.561534 
C        3.168583   -1.305426   -1.220658 
C        3.443591    0.059605   -0.939228 
C        1.397704   -2.804171   -1.040307 
C        1.941775   -1.683280   -1.847838 
C        0.064880   -2.967506   -0.973497 
C        0.061926   -2.566527    1.507868 
C       -0.633639   -3.116578    0.344491 
C       -0.662522   -1.564366    2.235931 
C        1.390239   -0.163700    2.438243 
C       -0.012640   -0.358775    2.621625 
C        2.927791    1.331273    1.163656 
C        1.840511    1.146147    2.082949 
C        2.607502    2.475168    0.319089 
C        2.717401    1.010024   -1.663877 
C        2.495029    2.310801   -1.051643 
C        1.037088   -0.699313   -2.375115 
C        1.498324    0.632583   -2.357817 
C       -0.832059   -2.193470   -1.851536 
C       -0.421195   -0.947116   -2.363680 
C       -1.970540   -2.865785    0.129037 
C       -2.142301   -2.394882   -1.303693 
C       -2.081417   -1.273240    1.960722 
C       -2.759022   -1.956847    0.959570 
C       -0.988502    0.750904    2.494887 
C       -2.271989    0.174762    2.150272 
C        0.853021    2.236960    1.854366 
C        1.333680    3.059524    0.831691 
C       -0.568502    2.002823    2.007215 
C        1.147329    2.782469   -1.489741 
C        0.536208    1.752327   -2.228044 
C        0.485484    3.349611   -0.330219 
C       -1.392187    0.160982   -2.328189 
C       -0.876259    1.519821   -2.130235 
C       -3.077945   -1.395026   -1.346597 
C       -3.618718   -1.190891    0.059803 
C       -2.723839   -0.101691   -1.894448 
C       -3.165920    0.883400    1.327335 
C       -3.819773    0.153851    0.239182 
C       -3.428068    0.859032   -1.051525 
C       -1.443030    2.666532    1.074014 
C       -0.857827    3.129120   -0.215217 
C       -1.575599    2.422725   -1.283578 
C       -2.707747    2.133236    0.792013 
C       -2.842787    2.050055   -0.717918 
