50
0 1
C        3.683756    1.055450   -0.884584 
C        3.084962    2.119348   -0.045488 
C        2.938877    1.631989    1.257111 
C        3.739186   -0.164129   -0.045490 
C        3.357210    0.171887    1.257101 
C        2.971374   -1.211670   -0.713623 
C        2.738661    0.784688   -1.907723 
C        2.344340   -0.614068   -1.878963 
C        1.878976    2.601404   -0.713584 
C        1.663464    1.762439   -1.878955 
C        0.755030    3.025535    0.051136 
C        1.674858    1.711916    1.929909 
C        0.638067    2.556793    1.429524 
C        2.327329   -0.565174    1.929908 
C        1.349816    0.386713    2.440057 
C        2.242671   -2.166622    0.051135 
C        1.895243   -1.830977    1.429523 
C        1.313373   -2.927925   -0.713594 
C        1.033992   -0.999008   -2.279687 
C        0.694543   -2.321822   -1.878925 
C        0.348139    1.395005   -2.279688 
C       -0.000023    0.000003   -2.487717 
C       -0.436368    3.179129   -0.713607 
C       -0.640403    2.337320   -1.878906 
C       -1.727461    3.320291   -0.045451 
C       -0.674180    2.298086    1.929914 
C       -1.827447    2.821468    1.257108 
C        0.000034    0.000003    2.647020 
C       -1.009779    0.975617    2.440060 
C        0.645174   -2.306408    1.929930 
C       -0.339967   -1.362302    2.440078 
C        0.292944   -3.731326   -0.045494 
C       -0.056056   -3.361127    1.257119 
C       -0.689791   -2.764098   -1.907696 
C       -0.927828   -3.717944   -0.884589 
C       -1.382224   -0.395986   -2.279666 
C       -1.703996   -1.723241   -1.878932 
C       -2.048942    1.979427   -1.907652 
C       -2.755945    2.662483   -0.884563 
C       -2.358077    0.559392   -1.878889 
C       -2.882773    1.729122    1.257123 
C       -2.319956    0.594492    1.929940 
C       -3.377911    1.611954   -0.045438 
C       -3.192363    0.326538   -0.713554 
C       -1.653092   -1.732928    1.929953 
C       -1.529720   -2.993371    1.257142 
C       -2.011715   -3.156171   -0.045478 
C       -2.535048   -1.967463   -0.713586 
C       -2.533266   -0.725818    1.429560 
C       -2.997689   -0.858915    0.051171 
