50
0 1
C       -3.514380   -0.962695   -1.634090 
C       -3.789294   -1.171851   -0.173748 
C       -3.990877    0.078893    0.401657 
C       -3.266200    0.500916   -1.815173 
C       -3.633054    1.145279   -0.654044 
C       -1.881270    0.642125   -2.306541 
C       -2.329578   -1.625345   -1.937709 
C       -1.336324   -0.667551   -2.451640 
C       -2.725299   -2.022137    0.349865 
C       -1.894446   -2.425235   -0.783638 
C       -2.054247   -1.677887    1.569618 
C       -3.286899    0.441003    1.586425 
C       -2.303502   -0.392686    2.162781 
C       -2.719139    2.082953   -0.022818 
C       -2.661133    1.773566    1.355411 
C       -1.026976    1.693700   -1.837375 
C       -1.492700    2.458792   -0.689625 
C        0.388003    1.534273   -2.097589 
C        0.047420   -0.934380   -2.305145 
C        0.929262    0.203385   -2.404407 
C       -0.541319   -2.723162   -0.648146 
C        0.442984   -2.145290   -1.590834 
C       -0.745432   -2.183668    1.735389 
C       -0.107804   -2.933147    0.702808 
C        0.340720   -1.435241    2.444520 
C       -1.132756    0.452561    2.567928 
C       -1.420932    1.791395    2.078598 
C        0.191081   -0.002087    2.614008 
C       -0.497270    3.007530    0.163825 
C       -0.383394    2.540030    1.567319 
C        1.267410    2.488244   -1.483544 
C        0.809588    3.164210   -0.322291 
C        2.667383    2.152948   -1.232530 
C        2.326028   -0.066016   -2.229995 
C        3.185057    0.955613   -1.619305 
C        1.812354   -2.326298   -1.318917 
C        2.741581   -1.319649   -1.721153 
C        1.305774   -2.982619    0.998841 
C        1.560154   -1.972990    2.094841 
C        2.232517   -2.793152    0.015317 
C        3.854354    0.307420   -0.421058 
C        3.703428   -1.068271   -0.568622 
C        2.704930   -1.160420    1.684732 
C        3.261151   -1.811474    0.532010 
C        1.329318    0.853761    2.241365 
C        0.993519    2.167434    1.828504 
C        1.774795    2.839917    0.802935 
C        2.893077    2.275759    0.273146 
C        2.601590    0.268311    1.743039 
C        3.370743    0.983232    0.755053 
