50
0 1
C       -4.304128   -0.443907    1.118348 
C       -4.414555   -1.215277   -0.032834 
C       -4.311005   -0.320426   -1.212184 
C       -4.059936    0.986831    0.735364 
C       -4.063355    1.059743   -0.670963 
C       -2.889537    1.425611    1.470547 
C       -3.093246   -0.869143    1.885522 
C       -2.307261    0.264108    2.198896 
C       -3.205933   -2.123033   -0.081730 
C       -2.472192   -1.976064    1.166851 
C       -3.156640   -0.676475   -1.925488 
C       -2.493248   -1.833249   -1.266094 
C       -2.881094    1.578314   -1.346495 
C       -2.299896    0.504386   -2.170579 
C       -1.969183    2.251052    0.845491 
C       -1.967400    2.336115   -0.623843 
C       -0.575434    2.269265    1.280456 
C       -0.888310    0.131636    2.334932 
C       -0.011464    1.272200    2.112474 
C       -1.075119   -2.040918    1.147732 
C       -0.326455   -1.160761    2.037954 
C       -1.076898   -1.895473   -1.278724 
C       -0.390632   -2.329741   -0.102971 
C       -0.925389    0.367884   -2.316008 
C       -0.335743   -0.975477   -2.142537 
C       -0.581165    2.392693   -1.049096 
C        0.217474    2.708240    0.139671 
C       -0.030760    1.467927   -1.954302 
C        1.564831    2.539440    0.126720 
C        1.436153    1.110442    2.126237 
C        2.246800    1.942972    1.284669 
C        1.063721   -1.304018    2.049605 
C        1.964497   -0.201952    2.358241 
C        1.044300   -2.433691   -0.116213 
C        1.753277   -2.201438    1.104599 
C        1.023219   -1.116330   -2.188599 
C        1.730524   -2.080285   -1.316581 
C        1.421590    1.306364   -1.998329 
C        2.238938    2.056207   -1.094736 
C        1.947764    0.029461   -2.376271 
C        3.530219    1.539910    0.818554 
C        3.529427    1.618403   -0.685584 
C        3.271112   -0.586346    1.919536 
C        3.126199   -1.858556    1.112482 
C        4.116503    0.284171    1.182724 
C        3.104126   -1.733416   -1.312163 
C        3.239272   -0.399890   -1.995197 
C        4.097548    0.403426   -1.165925 
C        3.864947   -1.674712   -0.096725 
C        4.573534   -0.396221   -0.037436 
