50
0 1
C        3.309129   -1.890783   -0.674083 
C        2.165144   -2.633997   -0.942418 
C        1.422911   -2.852986    0.312800 
C        3.279020   -1.473331    0.748090 
C        2.090254   -2.068053    1.337315 
C        3.485255   -0.082690    0.811840 
C        3.261647   -0.638731   -1.483375 
C        3.499154    0.455472   -0.601536 
C        1.432590   -1.983442   -2.049280 
C        2.090390   -0.673801   -2.299409 
C        0.079960   -2.072571   -2.055899 
C        0.019272   -2.971208    0.278186 
C       -0.677930   -2.742787   -0.968232 
C       -0.682695   -2.572680    1.461234 
C        1.301927   -1.299275    2.254447 
C       -0.064535   -1.614028    2.355555 
C        2.786305    0.656104    1.805347 
C        1.672046    0.070101    2.473940 
C        2.454408    2.049883    1.524881 
C        2.841103    1.654194   -0.886957 
C        2.488761    2.525958    0.232037 
C        1.282186    0.492649   -2.472102 
C        1.751805    1.679106   -1.845722 
C       -0.745180   -0.962381   -2.545709 
C       -0.166034    0.320171   -2.700106 
C       -2.011166   -2.266088   -1.019876 
C       -2.086455   -1.182552   -2.042740 
C       -2.082958   -2.310117    1.398079 
C       -2.774873   -2.142520    0.177811 
C       -1.092486   -0.589177    2.685750 
C       -2.350076   -1.105122    2.261497 
C        0.603348    1.110471    2.596531 
C        1.079614    2.296991    2.066435 
C       -0.803105    0.779907    2.514172 
C        1.164037    3.151779   -0.078148 
C        0.779673    2.692705   -1.372040 
C        0.294283    2.987150    1.036604 
C       -1.053749    1.417473   -2.444211 
C       -0.568755    2.532799   -1.600745 
C       -2.952982   -0.102659   -1.880245 
C       -2.404767    1.201718   -2.119848 
C       -3.662896   -0.981173    0.324019 
C       -3.269683   -0.287666    1.622795 
C       -3.757882   -0.025748   -0.649869 
C       -1.696722    1.628859    1.725390 
C       -1.070299    2.636027    0.840738 
C       -1.515057    2.720144   -0.512749 
C       -2.730529    2.056110   -0.915976 
C       -2.953390    1.085959    1.335574 
C       -3.460018    1.323839   -0.019793 
