50
0 1
C       -3.633521   -0.952774   -1.472123 
C       -4.004819   -0.124169   -0.277515 
C       -3.660009   -0.855683    0.860697 
C       -2.878909   -2.141051   -0.973764 
C       -2.947658   -2.115255    0.407247 
C       -1.554477   -2.111725   -1.608449 
C       -2.764732   -0.208636   -2.266556 
C       -1.500767   -0.955227   -2.446331 
C       -3.434013    1.202150   -0.463352 
C       -2.693030    1.176137   -1.757897 
C       -2.835832    1.837168    0.617213 
C       -2.861481   -0.278088    1.909211 
C       -2.612065    1.097782    1.871047 
C       -1.746299   -2.235927    1.199495 
C       -1.726168   -1.180301    2.191162 
C       -0.381419   -2.491282   -0.881259 
C       -0.540032   -2.637168    0.568047 
C        0.894258   -2.097731   -1.419534 
C       -0.278076   -0.258372   -2.630434 
C        0.960436   -0.946978   -2.319450 
C       -1.504981    1.827506   -1.892654 
C       -0.331975    1.161498   -2.501627 
C       -1.640455    2.703421    0.414832 
C       -0.975025    2.714346   -0.835149 
C       -1.375613    1.571570    2.448279 
C       -0.827406    2.640406    1.560896 
C       -0.480036   -0.692899    2.685537 
C       -0.319435    0.738261    2.814365 
C        0.618311   -2.468459    1.367129 
C        0.677275   -1.425503    2.371026 
C        2.066778   -2.393479   -0.626360 
C        1.896523   -2.582715    0.763570 
C        3.316430   -1.671467   -0.822318 
C        2.153241   -0.167853   -2.365825 
C        3.382844   -0.616302   -1.701823 
C        0.823386    1.870400   -2.068749 
C        0.443817    2.721981   -0.905416 
C        2.060802    1.259991   -2.139141 
C        0.592391    2.478567    1.503790 
C        0.957177    1.361845    2.365119 
C        1.277677    2.653486    0.267111 
C        2.029314   -0.817684    2.296244 
C        2.825747   -1.663314    1.501320 
C        3.764458   -1.158732    0.562598 
C        2.131152    0.625206    2.148057 
C        3.958677    0.569021   -0.975529 
C        3.078348    1.631865   -1.141808 
C        2.568575    2.069239    0.174368 
C        3.978599    0.211220    0.470534 
C        3.052017    1.125709    1.154170 
