50
0 1
C       -3.681953   -0.933215   -0.176945 
C       -3.413848   -0.540879    1.114483 
C       -3.266602    0.956172    1.146126 
C       -3.472872    0.274565   -1.077770 
C       -3.311631    1.431328   -0.222169 
C       -2.478691   -0.060910   -2.019197 
C       -2.913835   -2.004058   -0.753095 
C       -2.251494   -1.500764   -1.910039 
C       -1.930253   -2.729949    0.044248 
C       -2.279732   -1.097485    1.865321 
C       -1.612759   -2.272030    1.356626 
C       -2.174530    1.259716    1.984097 
C       -1.528603   -0.013030    2.396841 
C       -1.366048    2.364848    1.664933 
C       -2.367477    2.377902   -0.610430 
C       -1.604276    3.015133    0.428595 
C       -1.340052    0.799131   -2.271998 
C       -1.422376    2.085939   -1.714968 
C       -0.009458    0.187711   -2.530330 
C       -0.925226   -2.070150   -1.990011 
C       -0.838254   -3.026835   -0.874163 
C        0.171420   -1.278340   -2.359215 
C        0.410046   -3.382947   -0.377853 
C       -0.262127   -2.442855    1.803540 
C        0.640937   -3.208098    1.034023 
C       -0.099364   -0.068544    2.579180 
C        0.483407   -1.329233    2.429272 
C        0.095550    2.325579    1.905198 
C        0.715696    1.149929    2.355428 
C       -0.294300    3.410697   -0.132700 
C       -0.198749    2.852440   -1.435815 
C        0.714453    3.152354    0.853198 
C        1.125712    0.988666   -2.420193 
C        1.047167    2.354231   -1.852035 
C        2.449517    0.451378   -2.019375 
C        1.463447   -1.794622   -1.968845 
C        1.566720   -2.879147   -1.077178 
C        2.595751   -0.882885   -1.711807 
C        2.019285   -2.643176    1.204123 
C        1.907119   -1.486646    2.065057 
C        2.615361   -2.529340   -0.048777 
C        3.240113   -1.301623   -0.452345 
C        2.110156    0.977657    2.003314 
C        2.671768   -0.376257    1.774424 
C        3.470729   -0.330105    0.537605 
C        2.000488    2.858850    0.390944 
C        2.169517    2.585292   -1.019682 
C        3.089759    1.417497   -1.149392 
C        2.748667    1.862703    1.119397 
C        3.521725    1.043404    0.120352 
