50
0 1
C       -3.498502    1.047562    0.889815 
C       -3.498302   -0.279339    1.232618 
C       -3.674631   -1.086328   -0.040005 
C       -3.555436    1.121256   -0.638024 
C       -3.330055   -0.229690   -1.141459 
C       -2.768581    2.146608   -1.041759 
C       -2.435589    1.917279    1.322008 
C       -2.250565    2.851057    0.207713 
C       -1.293231    1.373472    1.975676 
C       -2.388745   -0.856900    1.966480 
C       -1.249795   -0.073241    2.258057 
C       -3.024765   -2.296484    0.151979 
C       -2.232782   -2.219483    1.456578 
C       -2.135688   -2.721503   -0.842312 
C       -2.154904   -0.493214   -1.939983 
C       -1.636810   -1.813191   -1.839925 
C       -1.599045    1.924650   -1.909304 
C       -1.190092    0.591276   -2.248821 
C       -1.019911    3.343077   -0.089334 
C       -0.631277    2.866362   -1.482409 
C       -0.026719    2.089899    1.801932 
C        0.104562    3.056871    0.764791 
C        1.188557    1.443771    2.190202 
C        0.055996   -0.775609    2.316219 
C        1.223864   -0.017222    2.436864 
C       -0.991036   -2.787182    1.253823 
C       -0.954026   -3.303205   -0.142351 
C        0.200342   -2.123710    1.755963 
C       -0.196802   -2.060476   -1.973169 
C        0.148245   -3.074197   -0.921456 
C        0.238718    0.332317   -2.359281 
C        0.713328   -1.065264   -2.289171 
C        0.739566    2.580224   -1.459662 
C        1.257055    2.992279   -0.127073 
C        1.208018    1.367790   -2.041443 
C        2.420721    1.821086    1.622773 
C        2.446517    2.489150    0.334773 
C        2.542288   -0.503457    2.017838 
C        3.305555    0.627340    1.521705 
C        1.418875   -2.497652    1.167256 
C        1.405011   -2.968994   -0.260432 
C        2.629618   -1.718943    1.324767 
C        2.121513   -1.337098   -1.968127 
C        2.428012   -2.370652   -0.944321 
C        3.356729   -1.744207    0.055370 
C        2.585199    1.063280   -1.692624 
C        3.214304    1.669258   -0.580908 
C        3.887265    0.609698    0.243643 
C        3.033121   -0.315435   -1.775751 
C        3.864308   -0.592887   -0.519739 
