50
0 1
C       -4.599626    0.676138    1.190238 
C       -5.143766    0.000506   -0.023139 
C       -4.591614   -1.384557   -0.004847 
C       -3.752079   -0.232099    1.857173 
C       -3.748416   -1.508110    1.118245 
C       -2.443652    0.385973    2.124830 
C       -3.709734    1.800491    0.722203 
C       -2.443745    1.689124    1.397905 
C       -4.591357    0.643850   -1.129965 
C       -3.701330    1.776399   -0.692604 
C       -3.696756   -1.533176   -1.210706 
C       -3.691803   -0.293383   -1.892042 
C       -2.436822   -2.039815    0.719856 
C       -2.429170   -2.056701   -0.774363 
C       -1.275396   -0.358040    2.099341 
C       -1.274830   -1.639767    1.357108 
C       -0.011931    0.361088    2.018791 
C       -1.251236    2.019631    0.726844 
C       -0.001398    1.578158    1.326364 
C       -2.448968    1.660881   -1.377916 
C       -2.441510    0.366091   -2.128283 
C       -1.253167    2.007697   -0.719056 
C       -1.237591   -1.630998   -1.389906 
C       -1.240172   -0.369995   -2.096948 
C       -0.010616   -1.926290    0.696491 
C        0.010552   -1.924360   -0.703144 
C        1.240061   -0.377089    2.096069 
C        1.237484   -1.635809    1.384321 
C        2.441254    0.358852    2.129664 
C        1.252835    2.005341    0.725814 
C        2.448840    1.656289    1.383584 
C        0.001155    1.582934   -1.321147 
C        0.011795    0.368048   -2.017465 
C        1.251056    2.022184   -0.719908 
C        1.274666   -1.635128   -1.362882 
C        1.275333   -0.350814   -2.100502 
C        2.429117   -2.059333    0.767520 
C        2.436715   -2.037324   -0.726723 
C        3.691883   -0.300046    1.891484 
C        3.696879   -1.537382    1.205864 
C        3.701403    1.774251    0.698774 
C        4.591577    0.640021    1.132372 
C        2.443758    1.694186   -1.392378 
C        2.443634    0.393334   -2.123872 
C        3.709960    1.803132   -0.716357 
C        3.748512   -1.504381   -1.123489 
C        4.591818   -1.384824    0.000235 
C        5.144164    0.000404    0.023151 
C        3.752284   -0.225794   -1.858422 
C        4.599949    0.680212   -1.188177 
