50
0 1
C        3.840286   -1.093134   -0.003516 
C        3.049890   -1.881414   -1.016217 
C        2.277671   -2.830518   -0.285752 
C        3.197747   -1.356647    1.323150 
C        2.345402   -2.422841    1.188883 
C        2.634019   -0.088021    1.793428 
C        3.682327    0.253630   -0.284993 
C        3.068199    0.935909    0.878870 
C        2.379718   -0.976384   -1.871205 
C        2.925156    0.374375   -1.554736 
C        0.968019   -1.109789   -2.183737 
C        0.947172   -3.038640   -0.606967 
C        0.300592   -2.285639   -1.670934 
C        0.977331   -2.367326    1.670470 
C        0.198761   -3.109324    0.683160 
C        1.301106   -0.036164    2.340680 
C        0.415651   -1.218946    2.253712 
C        0.715731    1.233372    2.356974 
C        2.321885    2.118807    0.680865 
C        1.290264    2.362744    1.631130 
C        2.159943    1.463051   -1.732926 
C        2.067506    2.534554   -0.689842 
C        0.165774    0.067992   -2.451934 
C        0.821927    1.357796   -2.363156 
C       -1.271630    0.069683   -2.289899 
C       -1.106630   -2.328514   -1.695364 
C       -1.900738   -1.195233   -2.080544 
C       -1.147269   -3.059109    0.702611 
C       -1.839489   -3.026771   -0.602712 
C       -1.054008   -1.068275    2.197175 
C       -1.821951   -2.104995    1.595982 
C       -0.754470    1.403760    2.368883 
C       -1.629819    0.272079    2.209373 
C        0.215490    3.269720    1.309283 
C       -1.051382    2.648534    1.795911 
C        0.941317    3.291325   -1.010027 
C        0.138661    2.521861   -2.047463 
C        0.021671    3.706821   -0.004258 
C       -1.961848    1.265423   -1.763882 
C       -2.022085    2.745240    0.715282 
C       -1.241330    2.495853   -1.619048 
C       -1.356766    3.284730   -0.438946 
C       -2.823577    0.526284    1.474627 
C       -3.004534    1.082124   -0.812516 
C       -2.845457    1.653277    0.524259 
C       -3.186455   -1.294915   -1.365713 
C       -3.081281   -2.447490   -0.421450 
C       -3.112249   -1.851855    0.968957 
C       -3.616843   -0.203855   -0.642468 
C       -3.539403   -0.543151    0.846537 
