50
0 1
C       -2.695401   -2.218290   -0.758809 
C       -3.177881   -1.671239    0.422979 
C       -3.602864   -0.256936    0.155656 
C       -2.693160   -1.136070   -1.809776 
C       -3.294647    0.043140   -1.220650 
C       -1.433500   -1.098529   -2.410066 
C       -1.417651   -2.873523   -0.801140 
C       -0.677933   -2.291470   -1.940226 
C       -0.732343   -3.091595    0.394716 
C       -2.364643   -1.676228    1.619026 
C       -1.191594   -2.429491    1.619304 
C       -3.127806    0.555266    1.215032 
C       -2.345044   -0.298131    2.142027 
C       -2.657321    1.850977    0.909092 
C       -2.694506    1.272618   -1.515329 
C       -2.598808    2.232563   -0.459058 
C       -0.738577    0.156206   -2.642018 
C       -1.435358    1.323340   -2.291101 
C        0.738579    0.156212   -2.642007 
C        0.678014   -2.291479   -1.940218 
C        1.433538   -1.098481   -2.410066 
C        0.732436   -3.091592    0.394727 
C        1.417740   -2.873506   -0.801142 
C        0.000023   -1.929569    2.309728 
C        1.191656   -2.429458    1.619307 
C       -1.188722    0.199611    2.707074 
C       -0.000001   -0.645039    2.833657 
C       -1.445992    2.384352    1.572997 
C       -0.736641    1.574662    2.432970 
C       -1.366807    3.034463   -0.672271 
C       -0.697396    2.511489   -1.820375 
C       -0.701957    3.189565    0.578219 
C        1.435308    1.323383   -2.291109 
C        0.697322    2.511484   -1.820380 
C        2.694475    1.272701   -1.515331 
C        2.693195   -1.135995   -1.809768 
C        2.695475   -2.218213   -0.758796 
C        3.294644    0.043225   -1.220657 
C        2.364692   -1.676167    1.619044 
C        3.177948   -1.671156    0.422998 
C        3.602880   -0.256842    0.155660 
C        1.188705    0.199641    2.707083 
C        0.736593    1.574677    2.432970 
C        2.345047   -0.298067    2.142036 
C        3.127791    0.555351    1.215035 
C        0.701862    3.189584    0.578219 
C        1.366712    3.034490   -0.672273 
C        2.598736    2.232636   -0.459061 
C        1.445922    2.384387    1.572988 
C        2.657260    1.851042    0.909082 
