50
0 1
C        3.005168    1.629319   -1.109221 
C        3.140955    0.318535   -1.460363 
C        3.445341   -0.483341   -0.216158 
C        3.150221    1.715961    0.406543 
C        3.204556    0.349713    0.918337 
C        2.201422    2.590871    0.853500 
C        1.797783    2.354487   -1.477495 
C        1.434365    3.125781   -0.330788 
C        0.774180    1.691656   -2.231509 
C        2.110211   -0.401701   -2.193819 
C        0.912956    0.256722   -2.574210 
C        2.851751   -1.746487   -0.367988 
C        2.103823   -1.755407   -1.658786 
C        2.260004   -2.310515    0.780285 
C        2.264516   -0.070822    1.920989 
C        1.906532   -1.449093    1.893387 
C        1.228556    2.218441    1.868809 
C        1.276939    0.908620    2.425498 
C        0.095515    3.298127    0.075072 
C       -0.032832    2.841455    1.479291 
C       -0.536502    2.214478   -2.033071 
C       -0.903912    2.965742   -0.842860 
C       -1.675883    1.424170   -2.416055 
C       -0.281683   -0.582180   -2.708525 
C       -1.582019    0.063940   -2.684630 
C        0.967927   -2.536047   -1.779676 
C       -0.246008   -1.927811   -2.291378 
C        1.205754   -3.276340    0.565046 
C        0.612891   -3.424789   -0.675747 
C        0.588124   -1.910052    2.389606 
C        0.126075   -3.013710    1.571468 
C        0.024874    0.418691    2.922813 
C       -0.343691   -1.004341    2.812465 
C       -1.240456    2.302004    1.898806 
C       -1.164647    1.155910    2.744857 
C       -2.218376    2.505633   -0.359821 
C       -2.771698    1.663554   -1.399709 
C       -2.372550    2.112400    0.961965 
C       -2.712156   -0.587515   -1.978769 
C       -3.362640    0.453102   -1.115693 
C       -1.368903   -2.517570   -1.490708 
C       -0.864058   -3.325057   -0.492666 
C       -1.119792   -2.997752    0.932419 
C       -2.517467   -1.712770   -1.213443 
C       -1.745560   -1.090804    2.332191 
C       -2.262861    0.224001    2.358787 
C       -2.989058    0.799125    1.276075 
C       -3.389824   -0.071577    0.244392 
C       -2.095622   -1.973587    1.255987 
C       -2.892239   -1.433170    0.214503 
