50
0 1
C        3.580914   -0.777603    1.060400 
C        3.112122   -1.851103    0.296171 
C        3.057041   -1.403301   -1.144861 
C        3.758635    0.417559    0.147639 
C        3.414209   -0.000833   -1.186495 
C        3.123616    1.535127    0.765438 
C        2.815472   -0.373398    2.171748 
C        2.561848    1.111266    2.039293 
C        1.585720   -1.003573    2.484821 
C        1.873444   -2.496375    0.600560 
C        1.068450   -2.091737    1.707756 
C        1.875483   -1.884452   -1.714867 
C        1.215617   -2.744211   -0.691887 
C        1.052278   -1.031811   -2.550336 
C        2.596921    0.842936   -1.967641 
C        1.420599    0.311617   -2.668365 
C        2.307666    2.381195   -0.021630 
C        2.228832    2.111981   -1.414973 
C        0.967985    2.795613    0.453964 
C        1.242671    1.373989    2.388597 
C        0.664293    0.092403    2.872166 
C        0.391741    2.265056    1.618404 
C       -0.664211   -0.092763    2.872173 
C       -0.391695   -2.265258    1.618132 
C       -1.242602   -1.374288    2.388461 
C       -0.125571   -2.965693   -0.744961 
C       -0.967972   -2.795670    0.453642 
C       -0.358126   -1.359734   -2.623489 
C       -0.858518   -2.424169   -1.878542 
C       -1.420675   -0.311283   -2.668364 
C        0.358051    1.360062   -2.623329 
C        0.858465    2.424404   -1.878265 
C        0.125550    2.965786   -0.744594 
C       -1.052350    1.032129   -2.550177 
C       -1.215638    2.744298   -0.691509 
C       -1.875533    1.884666   -1.714577 
C       -1.068401    2.091524    1.708049 
C       -1.585649    1.003263    2.484992 
C       -1.873427    2.496300    0.600926 
C       -2.561790   -1.111520    2.039227 
C       -2.815410    0.373126    2.171875 
C       -2.307667   -2.381192   -0.021860 
C       -2.228872   -2.111804   -1.415173 
C       -2.596977   -0.842690   -1.967671 
C       -3.123593   -1.535223    0.765336 
C       -3.057074    1.403445   -1.144598 
C       -3.112114    1.851066    0.296492 
C       -3.580883    0.777470    1.060600 
C       -3.414243    0.000982   -1.186395 
C       -3.758630   -0.417577    0.147695 
