50
0 1
C       -3.712345    0.687041   -0.225126 
C       -3.236992    1.453546    0.823341 
C       -2.326221    2.502841    0.267593 
C       -3.074637    1.239395   -1.496038 
C       -2.124339    2.282701   -1.108594 
C       -2.635810    0.189938   -2.246201 
C       -3.528775   -0.758561   -0.238698 
C       -2.961174   -1.106942   -1.537533 
C       -2.981608   -1.364410    0.883276 
C       -2.555143    0.858789    1.960485 
C       -2.572437   -0.540458    2.042239 
C       -1.226780    2.642833    1.190827 
C       -1.307477    1.576067    2.207717 
C       -0.019522    2.995177    0.664522 
C       -0.775179    2.257756   -1.643743 
C        0.188188    2.937704   -0.811699 
C       -1.255506    0.099755   -2.717419 
C       -0.305933    1.171080   -2.451245 
C       -1.862460   -1.946404   -1.673514 
C       -0.886846   -1.251789   -2.566385 
C       -1.963748   -2.430926    0.725087 
C       -1.359706   -2.716387   -0.543719 
C       -1.430680   -1.154305    2.633941 
C       -1.130898   -2.403978    1.874892 
C       -0.112426    0.933280    2.622489 
C       -0.224332   -0.472898    2.889328 
C        1.224288    2.575783    1.315219 
C        1.199731    1.460783    2.204550 
C        1.546354    2.767623   -1.025205 
C        2.243735    2.715455    0.316935 
C        1.119183    0.806166   -2.469265 
C        2.067057    1.683712   -1.833670 
C        0.468195   -1.621072   -2.517595 
C        1.501386   -0.563239   -2.529105 
C        0.010642   -3.081971   -0.556916 
C        0.859916   -2.662906   -1.675248 
C        0.275630   -2.555839    1.818520 
C        0.879768   -1.398563    2.537114 
C        0.846409   -3.001518    0.627356 
C        2.315795    0.559568    2.113951 
C        2.089497   -0.907434    2.169623 
C        3.287228    1.807649    0.216977 
C        3.221589    1.171616   -1.165908 
C        3.355768    0.764441    1.165938 
C        2.625740   -1.090543   -1.770642 
C        2.203085   -2.336124   -1.159764 
C        2.186313   -2.503225    0.240689 
C        2.841184   -1.528097    1.044322 
C        3.434152   -0.226140   -1.009048 
C        3.580140   -0.516971    0.415349 
