50
0 1
C        4.373446   -0.827330   -0.019200 
C        4.290849    0.388591    0.611416 
C        3.700390    1.385320   -0.328881 
C        3.754328   -0.676300   -1.400111 
C        3.238441    0.691876   -1.513341 
C        2.847363   -1.700954   -1.554719 
C        3.493541   -1.790734    0.727435 
C        2.744856   -2.446892   -0.225719 
C        3.317332    0.301898    1.760294 
C        2.772655   -1.020030    1.782847 
C        2.782292    2.149006    0.423825 
C        2.437353    1.407279    1.685586 
C        1.733108    2.715867   -0.285186 
C        1.895182    0.924720   -1.987925 
C        1.281555    2.110411   -1.520581 
C        1.486850   -1.481158   -2.007481 
C        0.974838   -0.202898   -2.267416 
C        1.355175   -2.696699   -0.008305 
C        0.638476   -2.388956   -1.223419 
C        1.366551   -1.180341    1.961571 
C        0.747352   -2.275957    1.215223 
C        1.064674    1.264874    2.055392 
C        0.504248   -0.042805    2.252483 
C        0.566914    3.082396    0.476729 
C        0.180029    2.308947    1.582942 
C       -0.180058    2.308856   -1.583025 
C       -0.566948    3.082385   -0.476837 
C       -0.504243   -0.042973   -2.252492 
C       -1.064742    1.264837   -2.055442 
C       -0.747244   -2.276098   -1.215254 
C       -1.366473   -1.180384   -1.961516 
C       -0.638479   -2.388791    1.223365 
C       -1.355104   -2.696644    0.008450 
C       -0.974859   -0.202812    2.267422 
C       -1.486846   -1.481056    2.007564 
C       -1.281590    2.110488    1.520522 
C       -1.733144    2.715898    0.285082 
C       -1.895187    0.924794    1.987891 
C       -2.437315    1.407229   -1.685627 
C       -2.782302    2.148959   -0.423944 
C       -2.772649   -1.020071   -1.782769 
C       -3.317311    0.301717   -1.760253 
C       -2.744852   -2.446864    0.225802 
C       -2.847358   -1.700892    1.554822 
C       -3.493580   -1.790825   -0.727320 
C       -3.238457    0.691917    1.513305 
C       -3.700397    1.385297    0.328811 
C       -4.290849    0.388525   -0.611423 
C       -3.754341   -0.676250    1.400158 
C       -4.373470   -0.827372    0.019249 
