50
0 1
C        4.222558   -0.815005    0.548353 
C        3.736412    0.139500    1.459398 
C        3.718941    1.434495    0.792183 
C        4.169095   -0.196989   -0.840783 
C        3.840869    1.147791   -0.707702 
C        3.295090   -1.006918   -1.632175 
C        3.282684   -1.948257    0.543394 
C        2.871126   -2.175734   -0.760480 
C        2.462579   -0.344480    2.058526 
C        2.229238   -1.650923    1.543483 
C        1.334552    0.540026    2.266500 
C        2.646636    2.248874    0.980995 
C        1.476982    1.873699    1.788698 
C        2.653359    1.709527   -1.342775 
C        2.095447    2.626142   -0.373376 
C        2.112362   -0.490649   -2.213434 
C        1.729003    0.893982   -2.079567 
C        1.483502   -2.420030   -1.036265 
C        1.036953   -1.491505   -2.016872 
C        0.895542   -2.113948    1.334863 
C        0.588190   -2.707953    0.047703 
C       -0.006984   -0.014478    2.333000 
C       -0.173195   -1.431315    2.020386 
C       -1.157988    0.852798    2.165285 
C        0.342402    2.484457    1.163715 
C        0.734017    2.795389   -0.244514 
C       -0.964898    2.087979    1.446049 
C        0.301018    1.207437   -2.067369 
C       -0.137232    2.286904   -1.257643 
C       -0.347758   -1.203917   -2.165215 
C       -0.747757    0.186449   -2.367942 
C       -0.752240   -2.814639   -0.350265 
C       -1.239169   -2.094873   -1.538581 
C       -1.490427   -1.937606    1.805547 
C       -1.757488   -2.722259    0.642719 
C       -2.494794    0.289631    2.116302 
C       -2.646562   -1.093496    2.009240 
C       -3.562025    0.926934    1.312058 
C       -1.933545    2.493079    0.440885 
C       -1.513432    2.457317   -0.916327 
C       -3.309551    2.004765    0.496014 
C       -2.107558    0.472348   -2.247145 
C       -2.533063    1.772996   -1.691984 
C       -3.688279    1.635707   -0.910604 
C       -2.649937   -1.761189   -1.315322 
C       -3.016078   -2.244950    0.001732 
C       -3.660382   -1.399233    0.916769 
C       -4.202986   -0.180923    0.466631 
C       -3.106731   -0.507414   -1.737275 
C       -4.058499    0.200457   -0.886813 
