50
0 1
C       -4.186521   -0.694209    0.567400 
C       -3.850266    0.692706    0.957118 
C       -3.626653    1.434582   -0.205176 
C       -3.973725   -0.791872   -0.925572 
C       -3.595613    0.487678   -1.387864 
C       -3.070036   -1.848597   -1.156378 
C       -3.297343   -1.565639    1.209438 
C       -2.709633   -2.444868    0.204474 
C       -2.777359    0.615094    1.948141 
C       -2.362286   -0.790890    2.074223 
C       -1.783066    1.582208    1.927353 
C       -2.491971    2.310569   -0.318394 
C       -1.691742    2.530228    0.803283 
C       -2.361143    0.707700   -2.077047 
C       -1.804504    1.982703   -1.580470 
C       -1.846006   -1.641235   -1.851934 
C       -1.444857   -0.362985   -2.338929 
C       -1.365820   -2.681088    0.220935 
C       -0.811512   -2.419689   -1.146575 
C       -1.004557   -1.118290    2.155955 
C       -0.521890   -2.251699    1.338377 
C       -0.426690    1.243545    2.324040 
C        0.000601   -0.088780    2.447914 
C       -0.287049    2.874601    0.633346 
C        0.469766    2.238262    1.715932 
C       -0.469767    2.238244   -1.715959 
C        0.287048    2.874594   -0.633377 
C       -0.000606   -0.088814   -2.447915 
C        0.426687    1.243514   -2.324057 
C        0.521884   -2.251711   -1.338354 
C        1.004551   -1.118327   -2.155938 
C        0.811514   -2.419660    1.146613 
C        1.365819   -2.681094   -0.220904 
C        1.444856   -0.362950    2.338940 
C        1.846010   -1.641208    1.851955 
C        1.804502    1.982722    1.580450 
C        2.361143    0.707728    2.077045 
C        1.691742    2.530215   -0.803310 
C        1.783065    1.582182   -1.927374 
C        2.491969    2.310572    0.318370 
C        2.362288   -0.790919   -2.074225 
C        2.777357    0.615071   -1.948154 
C        2.709635   -2.444868   -0.204453 
C        3.070042   -1.848577    1.156395 
C        3.297349   -1.565654   -1.209426 
C        3.595614    0.487696    1.387862 
C        3.626652    1.434585    0.205162 
C        3.850265    0.692695   -0.957127 
C        3.973730   -0.791858    0.925582 
C        4.186528   -0.694215   -0.567393 
