50
0 1
C       -3.749930   -1.637290   -0.362674 
C       -4.138678   -0.423123    0.367967 
C       -3.740677    0.678915   -0.396895 
C       -3.056459   -1.170871   -1.616325 
C       -3.000703    0.223350   -1.615470 
C       -1.783704   -1.892241   -1.697647 
C       -2.764357   -2.285894    0.393752 
C       -1.629593   -2.617959   -0.470069 
C       -3.283290   -0.378219    1.616257 
C       -2.432111   -1.500561    1.613687 
C       -3.054752    1.641423    0.470416 
C       -2.686477    0.938615    1.708270 
C       -2.157313    2.497105   -0.112011 
C       -1.796930    0.935293   -2.034277 
C       -1.554492    2.183148   -1.446116 
C       -0.642639   -1.299865   -2.301676 
C       -0.647171    0.158563   -2.541930 
C        0.568867   -1.965152   -2.029215 
C       -0.360436   -2.831565    0.091735 
C        0.687297   -2.827626   -0.862661 
C       -1.062069   -1.393541    2.023990 
C       -0.091371   -2.338468    1.454681 
C       -1.383175    1.084645    2.238773 
C       -0.606349   -0.119449    2.512480 
C       -1.105182    2.994985    0.720619 
C       -0.664810    2.271429    1.845303 
C       -0.219823    2.773542   -1.441046 
C        0.064094    3.309676   -0.137961 
C        0.595467    0.785471   -2.669260 
C        0.825012    2.125278   -2.108280 
C        1.877962   -1.319927   -2.229497 
C        1.878091    0.051061   -2.525027 
C        2.053065   -2.801345   -0.413624 
C        2.803241   -1.823444   -1.275600 
C        1.252024   -2.232308    1.842002 
C        2.334721   -2.554019    0.913405 
C        0.805952    0.038033    2.726565 
C        1.666699   -1.040993    2.547935 
C        0.815975    2.330805    1.836600 
C        1.244933    2.985844    0.574842 
C        1.527383    1.273945    2.314152 
C        2.127974    2.155600   -1.518167 
C        2.806617    0.868686   -1.821834 
C        2.334131    2.449768   -0.143038 
C        3.565934   -0.964818   -0.412843 
C        3.353234   -1.436454    0.959611 
C        2.956829   -0.555114    1.940287 
C        2.804986    0.866078    1.684575 
C        3.506470    0.422203   -0.655723 
C        3.155529    1.366784    0.440963 
