50
0 1
C        4.052263   -0.869199    0.400229 
C        4.101816    0.068372   -0.727680 
C        3.573969    1.285589   -0.300140 
C        3.346152   -0.145378    1.529535 
C        3.084403    1.162696    1.109644 
C        2.228433   -0.963091    1.984362 
C        3.231950   -1.936507    0.045432 
C        2.281248   -2.170826    1.147974 
C        3.139832   -0.465646   -1.769702 
C        2.629812   -1.706090   -1.308982 
C        2.583767    1.739773   -1.292166 
C        2.203409    0.555180   -2.117545 
C        1.635468    2.590952   -0.869754 
C        1.851020    1.795486    1.481517 
C        1.413439    2.833176    0.591444 
C        0.974117   -0.406232    2.316805 
C        0.844345    1.048027    2.209869 
C       -0.234809   -1.249677    2.217619 
C        1.126656   -2.798751    0.850754 
C       -0.078014   -2.509136    1.617870 
C        1.270253   -2.026855   -1.533268 
C        0.701571   -2.967104   -0.579379 
C        0.829989    0.272829   -2.334861 
C        0.360627   -1.088153   -2.153270 
C        0.303222    2.592880   -1.502322 
C       -0.124452    1.393796   -2.202006 
C        0.131227    3.368679    0.705643 
C       -0.550401    3.301743   -0.652879 
C       -0.471018    1.592350    2.283247 
C       -0.777322    2.815609    1.633184 
C       -1.592977   -0.653032    2.187349 
C       -1.683391    0.739231    2.223087 
C       -2.689573   -1.356778    1.525893 
C       -1.147612   -3.130689    0.853278 
C       -0.637172   -3.236771   -0.576399 
C       -2.401140   -2.615034    0.827018 
C       -1.089618   -1.359027   -2.119736 
C       -1.582120   -2.500823   -1.408131 
C       -2.792984   -2.417994   -0.629044 
C       -1.488239    1.134025   -2.185958 
C       -1.992338   -0.253861   -2.236134 
C       -1.911969    2.889378   -0.446392 
C       -2.105726    2.668896    0.959998 
C       -2.696589    1.469447    1.433113 
C       -2.423196    1.921986   -1.344313 
C       -3.616719   -0.660879    0.720290 
C       -3.597235   -1.289657   -0.671812 
C       -3.258868   -0.263132   -1.577580 
C       -3.538869    0.758350    0.548005 
C       -3.416635    1.041873   -0.863705 
