50
0 1
C       -4.029474   -0.484783    0.232569 
C       -3.362290   -1.667609   -0.387720 
C       -2.663296   -2.339647    0.622533 
C       -3.407717   -0.307499    1.576061 
C       -2.681595   -1.451320    1.862830 
C       -2.713228    0.984989    1.588646 
C       -3.681627    0.634982   -0.532133 
C       -3.019347    1.625326    0.336583 
C       -2.637695   -1.226635   -1.565824 
C       -2.953650    0.193804   -1.743749 
C       -1.314605   -1.692879   -1.820258 
C       -1.321663   -2.741181    0.420432 
C       -0.716553   -2.587899   -0.854653 
C       -1.328190   -1.370210    2.333116 
C       -0.538490   -2.316902    1.600783 
C       -1.395912    1.108981    2.165127 
C       -0.756796   -0.087778    2.641928 
C       -0.546751    2.214544    1.687903 
C       -2.096512    2.491971   -0.260412 
C       -0.868463    2.857802    0.469352 
C       -2.018312    1.053021   -2.279586 
C       -1.772658    2.318184   -1.630080 
C       -0.399149   -0.816746   -2.578839 
C       -0.717859    0.535614   -2.736736 
C        1.005881   -1.125208   -2.603713 
C        0.704126   -2.818039   -0.884519 
C        1.476801   -2.350954   -1.942439 
C        0.886913   -2.260003    1.562543 
C        1.527580   -2.746596    0.375110 
C        0.669588   -0.117633    2.822832 
C        1.507518   -1.235152    2.297535 
C        0.847541    2.210740    2.040024 
C        1.400130    1.059502    2.738245 
C        1.839199    2.624277    1.110355 
C        0.165621    3.096848   -0.542521 
C       -0.344932    2.636112   -1.799349 
C        0.300896    1.580274   -2.486467 
C        1.511285    2.838157   -0.260405 
C        2.011000   -0.127395   -2.420269 
C        1.652733    1.239437   -2.163491 
C        2.291252    1.928288   -1.099092 
C        2.839603   -2.085115   -1.446789 
C        2.811570   -2.292244    0.028139 
C        3.120998   -0.732143   -1.669473 
C        2.787928   -0.680240    1.869184 
C        2.749335    0.740871    2.148736 
C        2.991905    1.662410    1.147495 
C        3.259128    1.227652   -0.211667 
C        3.353534   -1.100453    0.658458 
C        3.574699   -0.101524   -0.416331 
