50
0 1
C        3.853604    1.262882   -0.029442 
C        3.801433    0.130705    0.937933 
C        3.683725   -1.044870    0.205252 
C        3.460287    0.701164   -1.375519 
C        3.435329   -0.677554   -1.252001 
C        2.259084    1.390561   -1.821146 
C        2.901168    2.198325    0.337584 
C        2.059646    2.474396   -0.842159 
C        2.762564    0.459899    1.916196 
C        2.193337    1.766392    1.579341 
C        1.872770   -0.533541    2.311827 
C        2.714118   -2.049890    0.550575 
C        1.910700   -1.860166    1.676893 
C        2.297999   -1.427076   -1.703487 
C        2.040360   -2.464841   -0.691731 
C        1.124874    0.692219   -2.312688 
C        1.202146   -0.765785   -2.335996 
C       -0.205495    1.332613   -2.221651 
C        0.810937    2.924895   -0.619586 
C       -0.270602    2.546887   -1.522601 
C        0.834580    2.041133    1.742574 
C        0.239414    2.952821    0.766827 
C        0.483674   -0.207069    2.600472 
C       -0.077713    1.056208    2.333611 
C        0.558582   -2.409968    1.708366 
C       -0.298596   -1.436213    2.409578 
C        0.801779   -3.062505   -0.635294 
C        0.046264   -3.112766    0.632805 
C       -0.023765   -1.502478   -2.377282 
C       -0.137372   -2.711801   -1.667813 
C       -1.463589    0.545123   -2.312918 
C       -1.353492   -0.847648   -2.383155 
C       -2.694184    1.056583   -1.719639 
C       -1.473364    2.978505   -0.833220 
C       -1.115418    3.074464    0.643265 
C       -2.645915    2.308454   -0.954433 
C       -1.542780    1.148728    2.139760 
C       -2.071122    2.225512    1.356717 
C       -3.156308    2.007650    0.444444 
C       -1.640157   -1.373237    2.177495 
C       -2.312220   -0.060512    2.146042 
C       -1.388855   -2.995230    0.300648 
C       -1.504994   -2.804159   -1.101129 
C       -2.278205   -1.735888   -1.659748 
C       -2.250701   -2.240955    1.136121 
C       -3.578445    0.201739   -1.023685 
C       -3.805128    0.775776    0.370100 
C       -3.452510   -0.219089    1.294394 
C       -3.306731   -1.196595   -0.869424 
C       -3.300713   -1.513801    0.546928 
