50
0 1
C       -4.043648   -0.624050   -0.003223 
C       -3.847951    0.841745   -0.264842 
C       -3.268385    0.971322   -1.529358 
C       -3.359479   -1.355475   -1.106288 
C       -2.950295   -0.422695   -2.040268 
C       -2.329774   -2.205167   -0.490539 
C       -3.376232   -0.937133    1.181718 
C       -2.381604   -1.992220    0.921545 
C       -3.156674    1.405087    0.883348 
C       -2.899128    0.298239    1.835756 
C       -2.125416    2.319489    0.660130 
C       -2.087488    1.763763   -1.738091 
C       -1.595425    2.529231   -0.688401 
C       -1.589882   -0.397778   -2.537952 
C       -1.107411    0.960101   -2.495843 
C       -1.058568   -2.394445   -1.143520 
C       -0.705139   -1.479016   -2.250690 
C       -0.023231   -2.881508   -0.342009 
C       -1.198248   -2.066031    1.717089 
C       -0.098308   -2.747465    1.123988 
C       -1.721467    0.247247    2.537420 
C       -0.897826   -0.988197    2.604331 
C       -0.979838    2.373680    1.568808 
C       -0.789034    1.374303    2.510221 
C       -0.154125    2.792040   -0.594788 
C        0.181675    2.842255    0.812213 
C        0.277665    1.240119   -2.458605 
C        0.773533    2.285176   -1.543714 
C        0.650666   -1.221955   -2.521888 
C        1.115774    0.129087   -2.755206 
C        1.397023   -2.736849   -0.718883 
C        1.737642   -1.964234   -1.843643 
C        1.215467   -2.513879    1.604701 
C        2.169153   -2.564603    0.461458 
C        0.458527   -0.604074    2.866539 
C        0.556031    0.864775    2.792583 
C        1.533016   -1.379411    2.393978 
C        1.473760    2.520727    1.233848 
C        1.670831    1.454389    2.240686 
C        2.146594    2.245669   -1.136797 
C        2.474658    2.398171    0.239576 
C        2.523737    0.177682   -2.411884 
C        2.887893   -1.142205   -1.778803 
C        3.034570    1.201625   -1.656598 
C        3.135445   -1.523430    0.617027 
C        2.742101   -0.742745    1.822606 
C        2.827441    0.638508    1.810941 
C        3.408530    1.288616    0.643147 
C        3.578888   -0.863734   -0.548758 
C        3.773957    0.585253   -0.483065 
