50
0 1
C        3.323714   -2.343935    0.364292 
C        3.961012   -1.129846    0.388002 
C        3.689224   -0.415745   -0.899082 
C        2.562067   -2.448416   -0.931140 
C        2.725503   -1.172461   -1.654517 
C        1.273285   -2.827494   -0.621796 
C        2.281324   -2.343729    1.445132 
C        1.101552   -2.797742    0.878275 
C        3.348537   -0.268319    1.460693 
C        2.251033   -1.009021    2.057146 
C        3.403980    0.929941   -0.563971 
C        3.114319    1.002125    0.915415 
C        2.544777    1.619534   -1.409119 
C        1.563410   -0.512462   -2.196352 
C        1.578514    0.895976   -2.206852 
C        0.152135   -2.350352   -1.387561 
C        0.236057   -1.147003   -2.125655 
C       -1.101606   -2.797719   -0.878274 
C       -0.152153   -2.350345    1.387552 
C       -1.273335   -2.827462    0.621785 
C        1.006297   -0.362513    2.283796 
C       -0.236049   -1.146996    2.125634 
C        1.988998    1.760741    1.364327 
C        0.967056    1.080394    2.114919 
C        1.896640    2.792883   -0.873653 
C        1.634842    2.889967    0.509092 
C        0.332512    1.714350   -2.212537 
C        0.596665    2.943041   -1.594205 
C       -1.006311   -0.362474   -2.283805 
C       -0.967037    1.080406   -2.114945 
C       -2.281365   -2.343728   -1.445144 
C       -2.251051   -1.008979   -2.057141 
C       -2.562115   -2.448417    0.931140 
C       -3.323770   -2.343921   -0.364292 
C       -1.563408   -0.512419    2.196340 
C       -2.725533   -1.172422    1.654492 
C       -0.332494    1.714335    2.212540 
C       -1.578497    0.895971    2.206874 
C        0.324749    3.499812    0.644504 
C       -0.324698    3.499814   -0.644480 
C       -0.596599    2.943013    1.594206 
C       -1.988997    1.760781   -1.364327 
C       -2.544780    1.619582    1.409131 
C       -1.634806    2.889989   -0.509102 
C       -1.896594    2.792872    0.873646 
C       -3.348530   -0.268283   -1.460678 
C       -3.961025   -1.129795   -0.387984 
C       -3.689201   -0.415718    0.899098 
C       -3.114308    1.002183   -0.915389 
C       -3.403942    0.930006    0.563970 
