50
0 1
C       -4.014627   -0.206450   -0.046279 
C       -3.429776   -1.562021    0.150478 
C       -2.904946   -1.617612    1.436689 
C       -3.609306    0.615200    1.026962 
C       -2.972926   -0.223864    2.031910 
C       -2.846905    1.765496    0.502992 
C       -3.424162    0.328806   -1.279732 
C       -2.882698    1.627392   -0.965525 
C       -2.550051   -1.842344   -0.975160 
C       -2.566776   -0.645230   -1.860128 
C       -1.349862   -2.539464   -0.770342 
C       -1.569473   -2.108143    1.650270 
C       -0.854256   -2.750978    0.602041 
C       -1.715852    0.088486    2.508439 
C       -0.875844   -1.146454    2.478829 
C       -1.661355    2.192570    1.136953 
C       -1.063630    1.365977    2.215248 
C       -0.738512    2.953885    0.332880 
C       -1.795548    2.069313   -1.720883 
C       -0.874589    2.946451   -1.068403 
C       -1.362491   -0.223035   -2.526097 
C       -1.025475    1.142189   -2.535795 
C       -0.350952   -2.361444   -1.802357 
C       -0.290599   -1.171827   -2.562289 
C        1.014672   -2.804793   -1.568903 
C        0.545034   -2.886948    0.834925 
C        1.443044   -3.086497   -0.297196 
C        0.515837   -1.095821    2.538611 
C        1.239463   -2.073224    1.794096 
C        0.291356    1.433068    2.467073 
C        1.117194    0.210716    2.740464 
C        0.707335    3.013735    0.631325 
C        1.183444    2.375031    1.757224 
C        0.468457    2.728678   -1.675456 
C        0.404461    1.579902   -2.480659 
C        1.450432    2.877058   -0.643627 
C        1.139087   -0.746481   -2.666393 
C        1.934642   -1.768912   -2.157692 
C        1.491972    0.643154   -2.457226 
C        2.709411   -2.323529   -0.025804 
C        2.599632   -1.765728    1.269689 
C        2.981591   -1.500106   -1.178381 
C        2.427957    0.440986    2.359544 
C        2.507608    1.797697    1.721599 
C        3.162962   -0.494805    1.502994 
C        2.590315    2.075576   -0.720528 
C        2.613038    0.930122   -1.641607 
C        3.354568   -0.165492   -0.965407 
C        3.199078    1.666256    0.524798 
C        3.638024    0.243457    0.375835 
