50
0 1
C       -2.845978    2.386051   -0.732979 
C       -3.049176    1.890507    0.587103 
C       -1.877583    2.214680    1.376289 
C       -1.524002    3.033335   -0.828083 
C       -1.023263    3.101544    0.534808 
C       -0.776105    2.336065   -1.795090 
C       -2.887365    1.265461   -1.684097 
C       -1.608189    1.183357   -2.290401 
C       -3.528115    0.522638    0.472963 
C       -3.447237    0.143070   -0.967803 
C       -3.092014   -0.379808    1.431814 
C       -1.254201    1.221197    2.191988 
C       -1.927696   -0.033293    2.286580 
C        0.203861    1.260565    2.398462 
C        0.326519    3.060594    0.678316 
C        0.964152    2.307533    1.777301 
C        0.641088    2.213404   -1.648159 
C        1.177604    2.884912   -0.517791 
C        1.325507    1.032415   -2.183924 
C       -0.970806   -0.078107   -2.482875 
C        0.499357   -0.138294   -2.520607 
C       -2.966047   -1.113977   -1.309660 
C       -1.734950   -1.219700   -2.108861 
C       -2.973351   -1.772797    1.075093 
C       -2.924157   -2.147526   -0.287144 
C       -1.163988   -1.270144    2.478300 
C       -1.780342   -2.326731    1.728117 
C        0.913724    0.053716    2.621476 
C        0.220405   -1.220921    2.541809 
C        2.278104   -0.171419    2.154395 
C        2.312874    2.125635    1.426067 
C        2.476391    2.544425   -0.021420 
C        3.008020    0.881207    1.590629 
C        2.681202    0.845019   -1.794279 
C        3.234745    1.607030   -0.676455 
C        3.753488    0.620697    0.356083 
C        3.219119   -0.487716   -1.634345 
C        3.762229   -0.623980   -0.218268 
C        1.069193   -1.419542   -2.342010 
C        2.424532   -1.579845   -1.879411 
C       -1.056202   -2.444651   -1.649709 
C       -1.735179   -2.965795   -0.493030 
C       -1.009683   -3.043418    0.751864 
C        0.311219   -2.493516   -1.703043 
C        1.041398   -2.151384    1.762858 
C        2.341867   -1.525734    1.575227 
C        3.065498   -1.755946    0.396626 
C        2.391051   -2.468354   -0.659445 
C        0.424410   -2.946501    0.760169 
C        1.088070   -2.955959   -0.525446 
