50
0 1
C       -3.964998   -0.958705   -0.414226 
C       -3.947775    0.320601    0.368106 
C       -3.533490    1.334609   -0.498032 
C       -3.290349   -0.673543   -1.719389 
C       -3.064272    0.683602   -1.794802 
C       -2.119823   -1.545353   -1.803160 
C       -3.182415   -1.889440    0.263766 
C       -2.121344   -2.374267   -0.635465 
C       -3.187035    0.084194    1.587537 
C       -2.746297   -1.329442    1.565797 
C       -2.265941    1.048658    2.006214 
C       -2.528095    2.276952   -0.116438 
C       -1.992704    2.215460    1.175491 
C       -1.757759    1.233674   -2.122390 
C       -1.576437    2.386846   -1.244077 
C       -0.865229   -1.042777   -2.322007 
C       -0.655578    0.414286   -2.450150 
C        0.243429   -1.836317   -2.064956 
C       -0.900886   -2.852443   -0.089028 
C        0.205584   -2.849560   -0.991614 
C       -1.502533   -1.670712    2.028107 
C       -0.617577   -2.595761    1.283217 
C       -0.979752    0.655029    2.601901 
C       -0.619495   -0.674394    2.644454 
C       -0.596836    2.606561    1.393663 
C        0.050185    1.642178    2.269038 
C       -0.312545    2.858141   -1.039479 
C        0.137214    3.155001    0.342503 
C        0.700757    0.960594   -2.318768 
C        0.806742    2.258180   -1.759472 
C        1.627466   -1.335145   -2.156954 
C        1.880086    0.073111   -2.232023 
C        1.511626   -3.003638   -0.495915 
C        2.431505   -2.191527   -1.352276 
C        0.730840   -2.347660    1.707676 
C        0.770761   -1.071838    2.443246 
C        1.809846   -2.701142    0.878259 
C        1.421674    1.293913    2.137459 
C        1.801527   -0.131568    2.255200 
C        1.542530    3.014086    0.375368 
C        1.994739    2.648913   -1.023425 
C        2.204354    2.152313    1.284400 
C        3.080177    0.526861   -1.586292 
C        3.078334    1.828331   -0.932020 
C        3.349638    1.597185    0.551096 
C        3.443131   -1.667217   -0.517409 
C        2.986240   -1.871056    0.923846 
C        2.989491   -0.621562    1.569590 
C        3.797201   -0.339553   -0.678185 
C        3.734090    0.305340    0.702016 
