50
0 1
C       -3.482116   -1.446755   -0.537829 
C       -3.112350   -0.784853   -1.699090 
C       -3.230578    0.693403   -1.482868 
C       -3.815603   -0.392310    0.498255 
C       -3.617986    0.916956   -0.117069 
C       -3.140524   -0.717249    1.658713 
C       -2.575093   -2.406058    0.074257 
C       -2.399293   -2.004152    1.460432 
C       -1.426561   -2.771621   -0.625894 
C       -1.832157   -1.024658   -2.334243 
C       -1.069829   -2.088337   -1.878245 
C       -2.083981    1.305825   -2.059619 
C       -1.168168    0.264418   -2.581896 
C       -1.535736    2.419791   -1.408944 
C       -2.902023    1.890106    0.613403 
C       -2.040863    2.753526   -0.114701 
C       -2.218170    0.208689    2.300907 
C       -2.163816    1.507233    1.851590 
C       -1.131169   -1.887605    2.030978 
C       -0.959832   -0.513480    2.587325 
C       -0.175681   -3.000836    0.088920 
C       -0.011314   -2.528402    1.410753 
C        0.378494   -2.003827   -1.963089 
C        0.918689   -2.810842   -0.865571 
C        0.223432    0.401237   -2.525459 
C        1.031727   -0.820975   -2.371220 
C       -0.079513    2.612323   -1.425372 
C        0.778798    1.688002   -2.044199 
C       -0.858466    3.067231    0.736349 
C       -0.857213    2.202984    1.852405 
C        0.284344    3.171940   -0.105725 
C        0.275203    0.120616    2.601013 
C        0.363620    1.548217    2.240097 
C        1.289404   -2.059301    1.795325 
C        1.457623   -0.694838    2.375320 
C        2.212315   -2.609837   -0.424312 
C        2.397773   -2.329287    0.996158 
C        2.430564   -0.735260   -2.026069 
C        3.030172   -1.669915   -1.150650 
C        2.158966    1.740697   -1.629661 
C        3.020517    0.570010   -1.742920 
C        1.505674    2.852224    0.466475 
C        1.560561    2.028647    1.668797 
C        2.532296    2.396088   -0.432318 
C        2.702883   -0.176171    1.965264 
C        3.367777   -1.185090    1.119074 
C        3.856606   -0.887051   -0.135793 
C        3.867149    0.482113   -0.589886 
C        2.791717    1.193179    1.541198 
C        3.451732    1.513258    0.339634 
