50
0 1
C        3.401315   -1.772629    0.124277 
C        2.338180   -2.727366   -0.245983 
C        1.430162   -2.837148    0.827784 
C        3.023779   -1.199088    1.445334 
C        1.815995   -1.816077    1.856861 
C        3.106194    0.232092    1.336574 
C        3.419675   -0.734345   -0.808332 
C        3.411178    0.547321   -0.084352 
C        1.826620   -2.301722   -1.539397 
C        2.384762   -0.988329   -1.850477 
C        0.492946   -2.536507   -1.799838 
C        0.054799   -3.134883    0.562723 
C       -0.344297   -3.201939   -0.794973 
C       -0.900294   -2.623719    1.533301 
C        0.789186   -1.023287    2.460966 
C       -0.558782   -1.513653    2.342236 
C        2.139340    1.006264    1.981678 
C        0.982495    0.371398    2.571275 
C        1.720502    2.296145    1.419087 
C        2.797990    1.605977   -0.678320 
C        2.127597    2.635088    0.133563 
C        1.554205    0.055333   -2.280934 
C        1.949991    1.402256   -1.898974 
C       -0.314706   -1.504361   -2.453307 
C        0.126710   -0.178887   -2.548176 
C       -1.717403   -2.890308   -1.175800 
C       -1.691829   -1.822085   -2.119478 
C       -2.301835   -2.467583    1.142766 
C       -2.700167   -2.572640   -0.171435 
C       -1.702366   -0.561348    2.376411 
C       -2.764901   -1.142410    1.690764 
C       -0.146647    1.328420    2.484451 
C        0.331689    2.536166    1.837972 
C       -1.468064    0.869224    2.324442 
C       -0.534342    3.290076    1.026128 
C        1.187754    3.305407   -0.739103 
C        1.038923    2.430389   -1.967195 
C       -0.060603    3.675428   -0.307834 
C       -0.875795    0.908425   -2.375318 
C       -0.389146    2.217396   -2.190548 
C       -1.069434    3.140985   -1.304919 
C       -2.622869   -0.778691   -1.713340 
C       -3.326537   -1.250542   -0.582842 
C       -3.428125   -0.424656    0.602314 
C       -2.200864    0.591522   -1.824982 
C       -2.342489    1.633182    1.475329 
C       -1.880144    2.822629    0.880588 
C       -2.180840    2.733385   -0.596314 
C       -3.158579    0.913604    0.464142 
C       -2.770932    1.456086   -0.848799 
