50
0 1
C       -3.661155   -1.056228   -0.611559 
C       -3.637215   -0.049097    0.355484 
C       -3.150279    1.210852   -0.252525 
C       -3.027487   -0.540601   -1.842647 
C       -2.851488    0.895130   -1.644150 
C       -1.912289   -1.333422   -2.142014 
C       -2.825068   -2.189233   -0.140181 
C       -1.801517   -2.398969   -1.083841 
C       -2.993795   -0.575205    1.575602 
C       -2.480893   -1.931241    1.243548 
C       -2.222648    0.272888    2.316454 
C       -2.318220    2.076894    0.496528 
C       -1.950718    1.669208    1.846541 
C       -1.341064    2.849067   -0.220193 
C       -1.753879    1.494249   -2.261046 
C       -1.158301    2.602089   -1.603787 
C       -0.711407   -0.730387   -2.680248 
C       -0.665284    0.665346   -2.822258 
C        0.534307   -1.405442   -2.473129 
C       -0.513533   -2.832340   -0.649979 
C        0.605802   -2.554758   -1.514338 
C       -1.216436   -2.303949    1.676318 
C       -0.256928   -2.876256    0.741921 
C       -0.987888   -0.219082    2.959978 
C       -0.464318   -1.455473    2.606664 
C       -0.720290    2.046694    2.371453 
C       -0.077290    0.884221    3.057864 
C        0.005027    3.140908    0.337166 
C        0.315066    2.707653    1.605573 
C        0.302102    2.589119   -1.913029 
C        0.604602    1.391898   -2.619596 
C        1.003628    2.965591   -0.744296 
C        1.777443   -0.729458   -2.465433 
C        1.831262    0.716981   -2.359059 
C        1.901455   -2.632264   -1.026492 
C        2.713176   -1.542535   -1.675395 
C        1.087609   -2.596444    1.261620 
C        0.962126   -1.595794    2.326977 
C        2.176434   -2.582732    0.406248 
C        1.271124    0.796624    2.698990 
C        1.585337    1.997892    1.866880 
C        1.848957   -0.489930    2.384535 
C        2.225498    2.334707   -0.492224 
C        2.709648    1.302010   -1.388215 
C        2.544868    1.926720    0.893180 
C        3.551202   -0.992360   -0.744156 
C        3.201053   -1.578673    0.616360 
C        2.998381   -0.512382    1.508091 
C        3.580648    0.439865   -0.577457 
C        3.362631    0.727649    0.793268 
