50
0 1
C        3.729681   -1.324051   -0.646849 
C        3.918634    0.133006   -0.385162 
C        3.710251    0.346934    0.971166 
C        3.196700   -1.939669    0.503524 
C        3.203842   -0.951339    1.574943 
C        1.917543   -2.589542    0.161449 
C        2.756599   -1.438965   -1.739775 
C        1.751829   -2.382592   -1.297256 
C        3.102645    0.855372   -1.368599 
C        2.360760   -0.153219   -2.181331 
C        2.439033    1.985161   -0.963381 
C        2.815880    1.395457    1.422332 
C        2.381083    2.343943    0.478627 
C        2.031249   -0.668704    2.242185 
C        1.823104    0.813214    2.297976 
C        0.792208   -2.481003    0.977043 
C        0.859243   -1.531076    2.126927 
C       -0.533719   -2.723416    0.382542 
C        0.488053   -2.228539   -1.808948 
C       -0.671241   -2.607366   -1.016330 
C        0.996617    0.080404   -2.585799 
C        0.140201   -1.044332   -2.588319 
C        1.118737    2.331496   -1.549388 
C        0.384288    1.394782   -2.362601 
C        1.129780    2.969861    0.709180 
C        0.432398    3.107186   -0.597983 
C        0.525851    1.350477    2.433784 
C        0.175911    2.490152    1.647006 
C       -0.301987   -1.021314    2.653835 
C       -0.547444    0.452049    2.750709 
C       -1.724746   -2.457862    1.146611 
C       -1.583174   -1.614437    2.339890 
C       -2.931980   -2.094151    0.519928 
C       -1.835548   -1.978455   -1.638361 
C       -1.310942   -0.930799   -2.537550 
C       -2.991711   -1.776681   -0.893459 
C       -1.025312    1.499946   -2.343707 
C       -1.889988    0.328531   -2.553492 
C       -0.967202    2.969421   -0.359390 
C       -1.174014    2.589653    1.046641 
C       -1.713046    2.347603   -1.357205 
C       -1.893774    0.702203    2.395627 
C       -2.571787   -0.602135    2.328019 
C       -3.508443   -0.901330    1.270967 
C       -2.223239    1.729534    1.414131 
C       -3.667373   -0.489982   -1.028737 
C       -3.123984    0.508757   -1.807991 
C       -2.935086    1.728474   -0.949897 
C       -3.847840    0.070570    0.371441 
C       -3.208541    1.406775    0.395027 
