50
0 1
C       -2.385003    2.894650   -0.036501 
C       -2.408832    2.328722    1.232129 
C       -3.125541    1.002728    1.156438 
C       -2.892516    1.832360   -1.011035 
C       -3.421626    0.737978   -0.239026 
C       -1.870261    1.615128   -1.973240 
C       -1.160750    3.382723   -0.554522 
C       -0.880882    2.655101   -1.791278 
C        0.044930    3.354661    0.236313 
C       -1.183889    2.112128    1.969560 
C        0.040010    2.711960    1.511474 
C       -2.401905    0.065105    1.906011 
C       -1.196138    0.744388    2.432097 
C       -2.368205   -1.321482    1.512003 
C       -3.188558   -0.541653   -0.705523 
C       -2.927595   -1.638853    0.236970 
C       -1.424259    0.282993   -2.311400 
C       -2.304564   -0.747151   -1.868630 
C       -0.000487   -0.000265   -2.487330 
C        0.505427    2.368660   -1.868637 
C        1.125227    3.031452   -0.706103 
C        0.957105    1.091575   -2.311588 
C        2.350271    2.592964   -0.239509 
C        1.257336    2.047675    1.905835 
C        2.431503    2.204698    1.155863 
C        0.000662    0.000406    2.631499 
C        1.242309    0.664595    2.432468 
C       -1.236891   -2.081366    1.969687 
C       -0.045374   -1.407524    2.432401 
C       -0.812319   -3.249892    1.232859 
C       -2.349547   -2.696980   -0.553613 
C       -1.859488   -2.090155   -1.791703 
C       -1.315014   -3.512362   -0.036282 
C        0.466128   -1.374331   -2.311695 
C       -0.464437   -2.426647   -1.973451 
C       -0.141194   -3.420512   -1.010830 
C        1.798958   -1.621744   -1.869063 
C        2.333571    0.811296   -1.974053 
C        3.033093    1.587902   -1.011367 
C        2.739469   -0.565346   -1.792734 
C        3.221431    0.921223    1.232499 
C        2.422128   -0.030588    1.969298 
C        3.699531    0.617092   -0.037067 
C        3.510392   -0.686361   -0.554303 
C        1.145024   -2.112117    1.905978 
C        0.694283   -3.207668    1.156352 
C        1.071125   -3.331464   -0.239203 
C        2.062922   -2.490004   -0.706001 
C        2.329185   -1.389923    1.511743 
C        2.883256   -1.715774    0.236208 
