50
0 1
C       -4.293653   -0.708090   -0.947748 
C       -4.640635    0.031546    0.179469 
C       -4.132472   -0.672275    1.379292 
C       -3.472995   -1.896626   -0.531062 
C       -3.390597   -1.887406    0.882013 
C       -2.265471   -1.868183   -1.305547 
C       -3.417561    0.099043   -1.846876 
C       -2.244548   -0.624658   -2.139218 
C       -3.891644    1.334406    0.107073 
C       -3.279341    1.414099   -1.223092 
C       -3.174988    0.147200    1.994148 
C       -3.036957    1.413365    1.233870 
C       -2.086024   -1.865503    1.478517 
C       -1.925410   -0.602220    2.240925 
C       -1.047974   -2.211901   -0.712676 
C       -0.960550   -2.238347    0.727466 
C        0.185034   -1.882055   -1.426208 
C       -0.980075    0.045867   -2.351721 
C        0.281508   -0.679334   -2.183110 
C       -2.042947    2.017567   -1.319667 
C       -0.952303    1.421056   -2.100407 
C       -1.728722    1.988220    1.133792 
C       -1.393050    2.541569   -0.117281 
C       -0.694537    0.021773    2.308123 
C       -0.612291    1.450753    1.936899 
C        0.333159   -1.942761    1.313313 
C        0.517440   -0.787158    2.101487 
C        1.354901   -2.444582   -0.882390 
C        1.446850   -2.501891    0.617281 
C        2.611994   -2.059592   -1.374581 
C        1.568596    0.003818   -2.227923 
C        2.746476   -0.751759   -1.973103 
C        0.305705    2.042573   -1.678359 
C       -0.002360    2.761425   -0.456883 
C        1.562078    1.435140   -1.864757 
C        0.651432    1.969616    1.760992 
C        0.942964    2.783219    0.561502 
C        1.857539   -0.206650    2.198886 
C        1.903035    1.220989    2.060394 
C        2.743810   -2.203332    1.006046 
C        3.587340   -2.169640   -0.237453 
C        2.992291   -0.961679    1.751776 
C        3.927958   -0.128134   -1.326440 
C        4.372434   -1.047779   -0.211450 
C        4.105886   -0.306313    1.076884 
C        2.631189    1.945203   -1.041320 
C        2.289287    2.574965    0.190453 
C        2.950276    1.809612    1.299304 
C        3.813266    1.132611   -0.794477 
C        3.984660    1.042233    0.733842 
