50
0 1
C        3.588295   -0.999630    0.442717 
C        3.370587   -1.102754   -0.915538 
C        2.399233   -2.205228   -1.162795 
C        2.744692   -2.054061    1.127303 
C        1.925917   -2.705558    0.146679 
C        2.133509   -1.465847    2.226237 
C        3.374992    0.267782    1.147366 
C        2.532018   -0.007442    2.283406 
C        3.082650    1.407209    0.408402 
C        2.927851    0.047455   -1.701675 
C        2.980733    1.317909   -1.083343 
C        1.495855   -1.745907   -2.114639 
C        1.748091   -0.324989   -2.441714 
C        0.160070   -2.175137   -2.047176 
C        0.537266   -2.861351    0.369605 
C       -0.282453   -2.923513   -0.830549 
C        0.726670   -1.557928    2.431284 
C       -0.108061   -2.304183    1.556574 
C        1.390636    0.748775    2.572732 
C        0.305236   -0.216541    2.877685 
C        2.041700    2.330960    0.865627 
C        1.090425    1.965110    1.858842 
C        2.053134    2.268225   -1.520455 
C        1.577141    3.037997   -0.312130 
C        0.641898    0.565055   -2.662661 
C        0.889327    1.924606   -2.302179 
C       -0.897269   -1.370731   -2.507350 
C       -0.742225    0.072757   -2.630488 
C       -1.652670   -2.823555   -0.764007 
C       -2.103343   -1.932285   -1.901601 
C       -1.550024   -1.984287    1.559733 
C       -2.350931   -2.368520    0.436838 
C       -0.987814    0.148458    2.776750 
C       -1.986201   -0.818189    2.273485 
C       -0.323972    2.335646    1.694371 
C       -1.338378    1.502797    2.292128 
C        0.254823    3.336933   -0.490595 
C       -0.203571    2.710404   -1.791281 
C       -0.731118    3.009908    0.511432 
C       -1.815943    0.887443   -2.124923 
C       -1.476825    2.185871   -1.597671 
C       -1.914944    2.579008   -0.225355 
C       -3.127784   -1.155997   -1.467507 
C       -3.428128   -1.536804   -0.019350 
C       -3.016240    0.304459   -1.533578 
C       -3.086808   -0.029721    1.830542 
C       -2.626695    1.397693    1.746999 
C       -2.910454    1.867497    0.409341 
C       -3.757602   -0.350068    0.635325 
C       -3.553294    0.800268   -0.332846 
