50
0 1
C        3.964480    0.687069    0.839373 
C        3.883092   -0.761614    0.453211 
C        3.770738   -0.798573   -0.957852 
C        3.567295    1.475739   -0.367268 
C        3.468952    0.621291   -1.443516 
C        2.384878    2.246502    0.009837 
C        3.023749    0.930315    1.833805 
C        2.095049    1.990138    1.394443 
C        2.873055   -1.383959    1.259963 
C        2.405911   -0.351863    2.231798 
C        1.892123   -2.256108    0.685822 
C        2.819196   -1.638378   -1.531954 
C        1.929476   -2.414516   -0.734011 
C        2.250259    0.558713   -2.258258 
C        1.961802   -0.828649   -2.478737 
C        1.291297    2.382831   -0.905062 
C        1.157452    1.422840   -2.033439 
C        0.125900    2.891553   -0.331445 
C        0.757025    2.016908    1.882146 
C       -0.198627    2.680671    1.080663 
C        1.113086   -0.335519    2.643652 
C        0.271456    0.893544    2.624153 
C        0.577446   -2.381448    1.337519 
C        0.222958   -1.458122    2.348886 
C       -0.532078   -2.912294    0.598315 
C        0.656107   -2.454769   -1.484479 
C        0.658041   -1.326386   -2.447686 
C       -0.496430   -2.798140   -0.880615 
C       -0.178349    0.955718   -2.393182 
C       -0.468592   -0.450916   -2.508343 
C       -1.118579    2.840096   -1.053468 
C       -1.298842    1.816612   -2.092470 
C       -1.626099    2.426054    1.185865 
C       -2.192222    2.767378   -0.130934 
C       -1.092847    0.507171    2.570701 
C       -1.128611   -0.976433    2.529808 
C       -2.093378    1.283300    1.883674 
C       -1.861343   -2.661627    0.977185 
C       -2.195804   -1.639989    1.938468 
C       -1.777567   -2.217635   -1.336016 
C       -1.774995   -1.009969   -2.121722 
C       -2.680627   -2.393726   -0.256492 
C       -2.593550    1.312668   -1.963068 
C       -3.215518    1.935180   -0.715013 
C       -2.861961   -0.115271   -1.915843 
C       -3.249862    0.554908    1.357861 
C       -3.296161   -0.841402    1.423675 
C       -3.631889   -1.399082    0.048304 
C       -3.775914    0.936937    0.024113 
C       -3.780974   -0.327748   -0.822365 
