50
0 1
C       -3.681079   -1.703100    0.360260 
C       -3.674718   -1.121655   -1.014681 
C       -3.913512    0.240855   -0.916809 
C       -3.726934   -0.555393    1.317756 
C       -3.991107    0.595934    0.572553 
C       -2.513405   -0.621180    2.119320 
C       -2.491909   -2.395057    0.556170 
C       -1.793697   -1.833966    1.722494 
C       -2.453492   -1.605338   -1.667853 
C       -1.720030   -2.476862   -0.701102 
C       -1.708568   -0.720210   -2.414170 
C       -3.013873    1.212700   -1.536011 
C       -1.953692    0.738656   -2.359346 
C       -3.190160    1.753489    0.765289 
C       -2.681228    2.203235   -0.576336 
C       -1.743080    0.555599    2.373356 
C       -2.094747    1.756487    1.651361 
C       -0.362995    0.372025    2.654649 
C       -0.406116   -1.920803    1.777744 
C        0.263063   -0.900668    2.512084 
C       -0.347722   -2.524924   -0.661694 
C        0.347728   -2.524894    0.661787 
C       -0.263063   -0.900776   -2.512051 
C        0.406115   -1.920880   -1.777669 
C       -0.681277    1.380731   -2.361226 
C        0.362992    0.371915   -2.654664 
C       -1.345096    2.664294   -0.399433 
C       -0.994681    2.512617    1.001922 
C       -0.347108    2.392595   -1.394698 
C        0.681276    1.380829    2.361172 
C        0.347104    2.392653    1.394602 
C        1.708569   -0.720104    2.414201 
C        1.953691    0.738760    2.359322 
C        1.720034   -2.476828    0.701199 
C        2.453495   -1.605266    1.667915 
C        1.793697   -1.834037   -1.722423 
C        2.491911   -2.395079   -0.556074 
C        1.743078    0.555504   -2.373377 
C        2.513403   -0.621266   -2.119298 
C        0.994680    2.512574   -1.002019 
C        1.345092    2.664309    0.399327 
C        2.094746    1.756417   -1.651427 
C        3.013875    1.212766    1.535964 
C        2.681228    2.203256    0.576249 
C        3.190159    1.753457   -0.765357 
C        3.674721   -1.121611    1.014724 
C        3.681081   -1.703114   -0.360190 
C        3.726933   -0.555447   -1.317735 
C        3.913512    0.240893    0.916798 
C        3.991106    0.595912   -0.572577 
