36

 C     3.2381450802     -0.6705750809     -0.1811236555
C     3.23814773     0.6705635171     0.1811254965
C     2.5022639199     1.4296750001     -0.7968775009
C     2.4070118403     -0.7970320533     -1.3942888794
C     1.8357527745     0.4945235336     -1.720978518
C     1.578405346     -1.9246774015     -1.2918827523
C     2.5022584945     -1.429684063     0.7968791282
C     1.7249580625     -2.4146543082     0.1282914873
C     2.4070142656     0.7970234636     1.3942902583
C     1.8357502916     -0.4945300885     1.7209795346
C     1.7249671079     2.4146484035     -0.1282905664
C     1.5784118386     1.9246718418     1.291883607
C     0.4641225444     2.6739955936     -0.5761025178
C     0.4280751291     0.6173451603     -2.0316828023
C     -0.2042311877     1.8788572252     -1.6173724383
C     0.2042319722     -1.8788536251     -1.6173754884
C     -0.4280741222     -0.6173408956     -2.0316841153
C     0.4641125021     -2.6739972574     0.5761028775
C     -0.464122275     -2.6739944383     -0.5761076199
C     0.4280719778     -0.6173466023     2.0316832221
C     -0.2042387877     -1.8788562077     1.6173723877
C     0.2042381999     1.8788531374     1.617375671
C     -0.4641126419     2.6739961384     0.5761073586
C     -0.4280727169     0.6173426001     2.0316838149
C     -1.5784047133     1.92468036     -1.2918801086
C     -1.7249581521     2.4146545762     0.128294802
C     -1.8357519336     -0.4945197534     -1.7209803251
C     -2.407011304     0.7970351309     -1.3942888648
C     -1.7249668411     -2.4146477988     -0.1282955869
C     -1.5784123527     -1.9246743335     1.2918793416
C     -2.5022637792     -1.4296731498     -0.7968813964
C     -1.8357507895     0.494526685     1.7209793878
C     -2.5022586505     1.4296824609     0.796879912
C     -3.2381454166     0.67057591     -0.1811241698
C     -2.4070147475     -0.797026013     1.3942875863
C     -3.2381476654     -0.6705636674     0.1811224326


