36

 C     -3.258492617     -0.3299899088     -0.3346648886
C     -2.6321699825     -1.4957257858     -0.632643348
C     -1.9037106926     -2.0433906063     0.5165982364
C     -2.8698800638     0.0082184226     1.0658968301
C     -1.9939704021     -1.0710027903     1.5764763738
C     -2.3664772705     1.2876083713     1.0488775201
C     -2.6476595473     0.7015008681     -1.223804178
C     -2.3008030412     1.7605877859     -0.3966462995
C     -1.6488285123     -1.3038653007     -1.7245750385
C     -1.6044134563     0.0970833421     -2.0594646259
C     -0.6405181961     -2.4933412104     0.048577839
C     -0.4877661781     -2.0246841372     -1.3965767424
C     0.4705405978     -2.3883038258     0.9073422136
C     -0.7968632713     -0.7260865189     2.2652004205
C     0.3572497717     -1.5351149923     2.0546809597
C     -1.0953423707     1.6582884214     1.667809171
C     -0.3234909647     0.6759982267     2.3186140141
C     -1.0714596171     2.410012009     -0.5681847539
C     -0.421102781     2.5563864891     0.7494701576
C     -0.3066359612     0.7393669517     -2.2208913344
C     -0.1089777473     2.0282483379     -1.5543604322
C     0.747533432     -1.5164084347     -1.8256056155
C     0.8514154764     -0.1446812791     -2.2949113318
C     1.7864184033     -2.1388402942     0.3342863051
C     1.9522773452     -1.8058877201     -1.0387557472
C     1.5661598121     -0.7081832246     2.1069105001
C     1.1509913389     0.6663014788     2.1713793348
C     2.4922541556     -1.1692666953     1.1460047742
C     0.9425267827     2.4956741273     0.5452569039
C     1.1740870249     2.2964052347     -0.9207609395
C     1.7814230563     1.578504922     1.2592779935
C     2.1735051715     0.302880874     -1.8583223221
C     2.868463345     -0.7309752874     -1.1706786086
C     3.1103301834     -0.2372729449     0.2204510697
C     2.2762756095     1.5029560215     -1.0784569964
C     2.7771091665     1.0969980727     0.2961925855


