36

 C     1.2225906255     0.7059912079     2.6120156752
C     -0.0001110081     1.4117901441     2.6120156752
C     -0.0002166986     2.3050545772     1.4181479074
C     1.9961274716     1.152714955     1.4181479074
C     1.2401554019     2.1482631247     0.7211629642
C     2.480528141     0.0001254797     0.7211629642
C     1.2227016337     -0.7057989362     2.6120156752
C     1.9963441702     -1.1523396221     1.4181479074
C     0.0001110081     -1.4117901441     2.6120156752
C     -1.2227016337     0.7057989362     2.6120156752
C     -1.2225906255     -0.7059912079     2.6120156752
C     -1.2403727391     2.1481376451     0.7211629642
C     -1.9963441702     1.1523396221     1.4181479074
C     -1.2401554019     2.1482631247     -0.7211629642
C     1.2403727391     2.1481376451     -0.7211629642
C     0.0002166986     2.3050545772     -1.4181479074
C     2.480528141     -0.0001254797     -0.7211629642
C     1.9963441702     1.1523396221     -1.4181479074
C     1.9961274716     -1.152714955     -1.4181479074
C     1.2403727391     -2.1481376451     0.7211629642
C     0.0002166986     -2.3050545772     1.4181479074
C     1.2401554019     -2.1482631247     -0.7211629642
C     -1.9961274716     -1.152714955     1.4181479074
C     -2.480528141     -0.0001254797     0.7211629642
C     -1.2401554019     -2.1482631247     0.7211629642
C     -1.9961274716     1.152714955     -1.4181479074
C     -2.480528141     0.0001254797     -0.7211629642
C     0.0001110081     1.4117901441     -2.6120156752
C     1.2227016337     0.7057989362     -2.6120156752
C     1.2225906255     -0.7059912079     -2.6120156752
C     -1.2225906255     0.7059912079     -2.6120156752
C     -0.0002166986     -2.3050545772     -1.4181479074
C     -1.2403727391     -2.1481376451     -0.7211629642
C     -1.9963441702     -1.1523396221     -1.4181479074
C     -0.0001110081     -1.4117901441     -2.6120156752
C     -1.2227016337     -0.7057989362     -2.6120156752


