36

 C     -2.9717752363     -1.0428715595     -0.6117938126
C     -3.3116456379     0.2819405437     -0.6634741315
C     -3.1358788228     0.8171085989     0.6814185707
C     -2.5341902101     -1.4551437554     0.734634478
C     -2.5590404875     -0.2946431982     1.5227847603
C     -1.2979785774     -2.1808532788     0.5864250955
C     -1.838637871     -1.3237693386     -1.5206495642
C     -0.9261633231     -2.166429315     -0.8743145475
C     -2.2523399016     0.9095105736     -1.5246063127
C     -1.3931071408     -0.083835764     -2.1304274032
C     -2.146601981     1.7788096151     0.630960277
C     -1.6641490453     1.9543949298     -0.784032594
C     -1.3487811025     0.1647615351     2.1613885522
C     -1.1103095145     1.5349653051     1.6644394929
C     -0.2592801774     -1.9531593433     1.5005060483
C     -0.2488905842     -0.6997527886     2.267680335
C     1.1036093018     -2.1921209932     1.081053423
C     0.4370067889     -2.0921783643     -1.2566559472
C     1.4638832702     -2.4370524426     -0.2886294427
C     0.0206274771     0.1639808785     -2.2887910056
C     0.9120173487     -0.9721445977     -2.0493970286
C     -0.3142646959     2.2571393488     -0.9905733927
C     0.5076667918     1.4809508909     -1.9103484934
C     0.1722862283     1.9914676958     1.4548995776
C     0.4982433886     2.6647857876     0.1679277789
C     1.1334459384     -0.1796537897     2.2203536214
C     1.9743248244     -1.1968258246     1.6382039699
C     1.3479805176     1.178455371     1.856766336
C     2.6374294005     -1.6986266364     -0.5819551612
C     2.2858370454     -0.7645553531     -1.6173100453
C     2.9305399051     -0.8729959633     0.5987266301
C     1.8634049126     1.6217150791     -1.4148889498
C     1.797992896     2.3390681265     -0.1285938611
C     2.3824313276     1.4640564009     0.886095975
C     2.7162241623     0.5419938053     -1.247255258
C     3.1280817841     0.4615078207     0.2294290295


