36

 C     3.3043368151     -0.575057272     -0.1244712628
C     3.2665228556     0.4311057203     0.8112678977
C     2.8606133108     1.6645979205     0.1751747734
C     2.8081605604     -0.0828222423     -1.4431235063
C     2.4270513047     1.2740501827     -1.2283224082
C     1.8175688048     -0.9952709816     -1.8450760068
C     2.4683005781     -1.7119233854     0.2996361457
C     1.6670753191     -2.0352362603     -0.7847562237
C     2.2319023622     0.041701735     1.8163885238
C     1.7991580478     -1.3301730438     1.5531286373
C     1.6761089037     2.0261608736     0.7905751566
C     1.2744857007     1.0657932499     1.8688796656
C     1.0933373002     1.684940911     -1.4699743332
C     0.650178307     2.3432107933     -0.1988936989
C     0.5043970301     -0.6057413272     -2.221676304
C     0.1299307077     0.7902980784     -2.0921448931
C     0.273316444     -2.3569336936     -0.6491782648
C     -0.4511838089     -1.6287233939     -1.708933467
C     0.4511843654     -1.6287083749     1.7089475637
C     -0.2733157027     -2.3569281768     0.6491986139
C     -0.1299310503     0.7903162175     2.0921379432
C     -0.5043968166     -0.6057221124     2.2216814283
C     -0.6501794177     2.34321213     0.1988733114
C     -1.0933380542     1.6849532608     1.4699595259
C     -1.2744861674     1.0657763977     -1.8688889867
C     -1.6761098029     2.0261533486     -0.7905928384
C     -1.799157457     -1.3301871623     -1.5531170941
C     -2.2319022214     0.0416851043     -1.8163888583
C     -1.6670745941     -2.0352299724     0.7847737388
C     -1.8175684743     -0.9952554946     1.8450844362
C     -2.4682997213     -1.7119266074     -0.2996214489
C     -2.4270516252     1.2740599099     1.2283111387
C     -2.8606136954     1.6645950951     -0.1751892767
C     -3.266522637     0.4310974554     -0.8112716655
C     -2.8081602862     -0.0828106594     1.4431239427
C     -3.3043361848     -0.5750572238     0.1244760945


