36

 C     2.8094504142     1.1436257679     -0.7048254461
C     1.6860297564     1.9393782358     -1.140587042
C     1.0667189872     2.5921465787     -0.0000069098
C     2.8094618184     1.1436243591     0.70477628
C     1.6860484981     1.9393748453     1.1405582014
C     2.5612943847     -0.2105039893     1.1406058741
C     2.5612757369     -0.2105017992     -1.1406532214
C     2.5739108881     -1.1102362186     -0.0000251592
C     0.8654544914     1.1536220769     -2.0393620002
C     1.4251303221     -0.2211750114     -2.0393765446
C     -0.5210073151     1.3447976757     -2.0394744241
C     -0.3253694984     2.7841133241     0.0000045915
C     -1.098240039     2.3232818186     -1.1405368587
C     -1.098220713     2.3232794899     1.140561506
C     0.8654886171     1.1536172734     2.0393473654
C     1.4251650574     -0.2211787618     2.0393489662
C     -0.5209725443     1.3447937065     2.0394858456
C     0.5663917404     -1.3262597379     2.0393336063
C     1.7116243594     -2.2199039578     -0.0000176045
C     0.8365788518     -2.4297822092     1.1405126304
C     0.5663569145     -1.3262567858     -2.0393471365
C     0.8365603461     -2.42978046     -1.1405335795
C     -1.4318339627     0.1726643571     -2.0393567212
C     -0.9041321066     -1.1235096493     -2.0392791795
C     -2.395068787     1.8612470129     -0.7047660507
C     -2.3950564309     1.8612455578     0.70481315
C     -2.5226831397     0.4904464411     -1.1405977897
C     -1.4317986706     0.1726600772     2.0393839444
C     -0.9040973454     -1.1235141277     2.0392944045
C     -2.5226636874     0.4904440605     1.1406451613
C     -2.7785323755     -0.3723663612     0.000026268
C     -0.414300616     -3.0048453084     0.7048057439
C     -0.4143136561     -3.0048442655     -0.7048033096
C     -1.4629384823     -2.1127936618     -1.1405921391
C     -1.4629197593     -2.1127957485     1.1406171402
C     -2.248794055     -1.6741116052     0.0000194372


