36

 C     -2.3211985217     -1.3476616426     1.4310090362
C     -2.8262800167     -0.0907573377     0.8552279135
C     -2.919754348     -0.2668410998     -0.5217923366
C     -1.8503585241     -2.1870646269     0.3305036131
C     -2.2266186529     -1.5679541159     -0.8590770298
C     -0.4477436161     -2.5393979564     0.5545336057
C     -1.1976222168     -1.0259661102     2.1775304415
C     -0.0521662259     -1.8528768555     1.7692005411
C     -2.073518224     1.0418148731     1.4065333276
C     -1.0595791871     0.4451723898     2.2644326219
C     -1.6764416132     2.0977595708     0.5213908771
C     -2.3853564315     0.7252937851     -1.384263585
C     -1.8802995453     1.9367334795     -0.8908010623
C     -1.2459293635     -1.2946557831     -1.8776608324
C     -1.3626547517     0.1028838003     -2.2263243349
C     0.4477803583     -2.5393916179     -0.5545294329
C     0.052193386     -1.8528777216     -1.7691973557
C     1.8503906112     -2.1870390692     -0.3305007641
C     1.2459482973     -1.2946369544     1.8776627449
C     2.2266421672     -1.5679228342     0.8590794808
C     0.2417168025     0.9895193222     2.3616073915
C     1.3626531516     0.1029053423     2.2263227227
C     -0.3379234729     2.6674018817     0.664446669
C     0.5665398428     2.1664323356     1.5692247243
C     -0.5665711896     2.1664220226     -1.5692277687
C     -0.2417317651     0.9895125972     -2.3616089184
C     0.3378850814     2.6674055764     -0.664450387
C     1.197637657     -1.0259525821     -2.1775276095
C     2.3212209617     -1.3476327963     -1.4310087817
C     1.0595731514     0.4451840443     -2.2644324204
C     2.9197578732     -0.2668006717     0.5217925928
C     2.385344478     0.7253279595     1.3842618574
C     1.8802707802     1.9367607221     0.8907980716
C     1.6764110553     2.0977823094     -0.5213934769
C     2.8262813554     -0.090720994     -0.8552279132
C     2.0735016551     1.0418407578     -1.4065342231


