36

 C     0.0152764655     2.7758890506     -1.4839917494
C     1.291467703     2.253117986     -1.1895345696
C     1.5093379661     2.3366712828     0.222497166
C     -0.6664106908     3.0318340584     -0.1968544885
C     0.3071477074     2.8911595842     0.8593444475
C     -1.7693896527     2.1800856711     -0.1599845565
C     -0.6836560298     1.7392252358     -2.1994334155
C     -1.8264853326     1.409764104     -1.4403213525
C     1.4916739327     0.9671314551     -1.8593889342
C     0.2418030366     0.6637060523     -2.5480262564
C     2.161959758     -0.0659409217     -1.15364999
C     2.0298320057     1.2420910547     0.9936379288
C     2.3490039403     0.0375605313     0.3265926253
C     0.0399094235     2.0959242255     1.9725138448
C     1.1998497337     1.1683479914     2.1887653872
C     -2.0114596022     1.2543848911     0.9243371985
C     -1.1580878122     1.3016359372     2.0801158463
C     -2.161959758     0.0659409217     -1.15364999
C     -2.3490039403     -0.0375605313     0.3265926253
C     -0.2418030366     -0.6637060523     -2.5480262564
C     -1.4916739327     -0.9671314551     -1.8593889342
C     1.8264853326     -1.409764104     -1.4403213525
C     0.6836560298     -1.7392252358     -2.1994334155
C     2.0114596022     -1.2543848911     0.9243371985
C     1.7693896527     -2.1800856711     -0.1599845565
C     0.7454075419     -0.0343020504     2.6633788683
C     -0.7454075419     0.0343020504     2.6633788683
C     1.1580878122     -1.3016359372     2.0801158463
C     -2.0298320057     -1.2420910547     0.9936379288
C     -1.1998497337     -1.1683479914     2.1887653872
C     -0.0399094235     -2.0959242255     1.9725138448
C     -1.291467703     -2.253117986     -1.1895345696
C     -0.0152764655     -2.7758890506     -1.4839917494
C     0.6664106908     -3.0318340584     -0.1968544885
C     -1.5093379661     -2.3366712828     0.222497166
C     -0.3071477074     -2.8911595842     0.8593444475


