92 

C 2.06916 3.88850 .91501
C 2.84928 2.92223 1.61783
C 3.96346 2.36957 .92526
C 4.54636 1.15876 1.33485
C 4.01361 .47303 2.44309
C .76561 4.17061 1.29352
C .08522 3.38097 2.28501
C .80253 2.34075 2.93738
C 2.22235 2.16926 2.66279
C 2.84904 .96396 3.07148
C -1.32296 1.27608 3.55414
C .05830 1.21889 3.52899
C -2.05550 2.33980 2.90656
C -1.37272 3.35184 2.21996
C -2.04382 3.93065 1.10593
C 4.80137 -.95643 .12237
C 4.35337 -1.67960 1.31159
C 4.90193 .40951 .13757
C 3.93164 -.98001 2.41905
C 2.69016 -1.36079 3.05764
C 3.60840 -2.83935 .86897
C 2.42774 -3.26625 1.51260
C 1.92613 -2.47044 2.63581
C .66605 -.09817 3.64038
C 2.05650 -.18142 3.49450
C -2.13229 .08916 3.53756
C -1.56993 -1.17638 3.40737
C -.11228 -1.29181 3.46927
C .53261 -2.47197 2.95472
C -.28976 -3.48216 2.34484
C 2.71142 -3.50123 -1.29952
C 4.25371 -1.63774 -1.04088
C 3.70040 -2.87530 -.56643
C 1.67140 -4.21340 -.63527
C .15537 -4.22069 1.25775
C 1.49363 -4.06635 .75158
C 2.14558 -2.83534 -2.43668
C 2.50483 -1.53558 -2.78109
C 3.64697 -.92949 -2.09370
C 3.81724 .52367 -2.11895
C 4.46641 1.17210 -1.01673
C 2.91933 1.28642 -2.86621
C .78822 -3.31195 -2.57920
C -1.54316 -2.82151 -2.83873
C -.23332 -2.47923 -3.13930
C .10126 -1.09820 -3.51293
C 1.47766 -.68074 -3.40665
C 1.75830 .68486 -3.49940
C -.98332 -4.46306 .37051
C -.81831 -4.35148 -1.02478
C .51397 -4.19574 -1.52632
C -1.86259 -3.75477 -1.77997
C 2.57245 2.62417 -2.49217
C 3.04807 3.16753 -1.27928
C 4.00590 2.41486 -.54794
C 2.17658 4.02705 -.55056
C 1.22676 2.86769 -2.91848
C .37167 3.70603 -2.20591
C .91434 4.36870 -1.05155
C -1.27979 4.47398 -.00914
C .06600 4.61871 .09590
C -2.86235 1.84787 -2.71385
C -1.56056 2.27929 -2.97695
C -1.06830 3.44794 -2.26621
C -1.87436 3.99975 -1.24981
C -2.59854 -1.84659 -2.90542
C -2.32374 -.50213 -3.28009
C -.94724 -.10797 -3.57659
C -.61584 1.29420 -3.51494
C .73260 1.65261 -3.54465
C -3.24107 .46153 -2.85777
C -4.40072 1.32336 -1.03266
C -3.64427 2.39883 -1.65365
C -3.12410 3.41945 -.88928
C -4.66324 -.11158 .90058
C -4.49312 1.20898 .36383
C -3.55108 -2.16332 -1.92613
C -4.59634 -1.25467 .09230
C -4.31790 -1.13540 -1.30506
C -4.22566 .15758 -1.85024
C -2.14520 -3.93423 .99675
C -3.98214 -2.34355 .87288
C -3.20268 -3.36564 .24211
C -3.06140 -3.32120 -1.17160
C -3.39997 .45165 2.91560
C -4.10078 -.47166 2.19614
C -3.61615 -1.83353 2.12394
C -2.37332 -2.20887 2.74162
C -1.72558 -3.32180 2.22597
C -3.20783 3.33336 .57082
C -3.82814 2.22126 1.19852
C -3.30037 1.82569 2.44824
