92 

C 3.88380 -1.00327 -1.66497
C 3.17727 -.27507 -2.71275
C 4.55375 -.26375 -.67111
C 3.23832 1.11917 -2.71120
C .96389 -.07169 -3.92998
C 2.05813 -.89790 -3.42873
C 1.81120 -2.25411 -3.19728
C -.26659 -.67310 -4.19516
C -.50683 -2.05256 -3.89438
C .50977 -2.81703 -3.36352
C .96526 1.37050 -3.69508
C -.29458 2.07951 -3.48727
C 2.14067 1.93732 -3.20542
C -.27541 3.29023 -2.79499
C 4.59130 -.71755 .70539
C 2.44380 -2.96107 -2.09488
C 3.46277 -2.36085 -1.32561
C 3.62119 -2.83397 -.00572
C 4.13828 -1.96433 1.03290
C 1.48644 -3.81999 -1.51089
C 1.49777 -4.09456 -.12679
C 2.64088 -3.68248 .59100
C -1.03635 -4.06969 -.19026
C .21567 -4.24458 .56321
C -2.19665 -3.77989 .51950
C -1.00230 -3.71739 -1.62631
C -2.10441 -2.95830 -2.23424
C .24089 -3.68764 -2.25255
C -1.84107 -2.19576 -3.38455
C 1.33813 -3.44749 2.63584
C 3.35219 -2.16402 2.23356
C 2.54298 -3.31740 1.99374
C -.96705 -3.53232 2.61607
C .20231 -4.03565 1.95152
C -2.16962 -3.48184 1.92730
C .86013 -2.38517 3.47217
C 1.54015 -1.17605 3.58191
C 2.86370 -1.07048 2.97263
C 3.40804 .24620 2.66268
C 4.28505 .40473 1.56871
C 2.67124 1.38275 3.05479
C -.58998 -2.45064 3.46734
C -1.38980 -1.30130 3.58521
C -.72794 -.01585 3.81481
C .73994 .02947 3.84894
C 1.36736 1.25652 3.68710
C -2.83288 1.09574 3.14410
C -1.46152 1.18324 3.59426
C -2.71250 -1.34690 3.00914
C -3.41243 -.11382 2.80563
C -3.08204 -2.43368 2.18563
C 2.67551 2.56541 2.28843
C 3.35078 2.63605 1.04510
C 4.23245 1.57561 .75127
C 4.47251 1.16152 -.62119
C 3.86138 1.84579 -1.64429
C 1.45789 4.08641 .17398
C 2.73191 3.39476 -.05015
C 3.07349 3.03137 -1.36366
C .64367 4.36319 -.93462
C .93403 3.80750 -2.22634
C 2.12488 3.14623 -2.43519
C 1.40958 3.24113 2.49885
C -.60679 4.17069 1.59141
C .80368 4.00094 1.49164
C -.76749 2.43359 3.33501
C .63130 2.44483 3.38979
C -1.37366 3.42987 2.51663
C -2.65770 3.68479 .54952
C -1.42300 4.37662 .39782
C -.80802 4.41515 -.83234
C -3.21025 2.92009 -.49845
C -2.51657 2.89972 -1.77564
C -1.37257 3.68916 -1.92686
C -4.19666 1.43218 1.24782
C -3.40076 2.10274 2.25410
C -2.68769 3.21187 1.92457
C -4.31686 .80461 -1.07945
C -4.08017 1.80168 -.13287
C -3.84933 -2.21721 .95363
C -4.51205 -.56293 -.69185
C -4.42086 -.94107 .65881
C -4.28214 .08661 1.63131
C -2.50280 -.92582 -3.61248
C -3.54944 -.54054 -2.80413
C -3.97387 -1.40680 -1.72926
C -3.25314 -2.56997 -1.41505
C -3.28914 -3.00750 -.05729
C -2.66994 1.76081 -2.68188
C -1.55983 1.35186 -3.53102
C -1.52480 .03780 -4.00641
C -3.65432 .81510 -2.37299
