92 

C -3.51168 -2.17741 1.67827
C -1.84981 -3.89028 1.44476
C -2.93926 -3.19110 .88071
C -.83652 -4.51024 .60611
C -.94836 -4.40882 -.76206
C .44147 -4.35881 1.22688
C .21178 -4.09304 -1.54221
C 1.45833 -3.86140 -.95590
C 1.58798 -4.01916 .48526
C 3.65251 -2.67611 .42757
C 2.66051 -3.31427 1.18378
C 2.42051 -2.80198 2.48784
C -2.10592 -3.76061 -1.35608
C -3.06703 -3.09214 -.57728
C -3.77045 -1.94928 -1.16200
C -1.66875 -3.22591 -2.61188
C -2.30383 -2.12743 -3.14523
C -3.42431 -1.55042 -2.46491
C -.23602 -3.33206 -2.69459
C -1.51690 -1.07448 -3.74147
C -.12638 -1.11380 -3.74495
C .54221 -2.30949 -3.22887
C 3.56939 -2.60571 -1.02897
C 2.40428 -3.02276 -1.69387
C 1.94070 -2.24273 -2.82095
C 2.66709 -1.10417 -3.19978
C -4.38756 -.93857 -.28689
C -4.26379 -1.08084 1.09713
C -3.47701 -.15691 -2.88033
C -4.07951 .77431 -2.09236
C -4.57954 .39428 -.78443
C -1.54590 3.47462 -2.13271
C -3.52420 2.10854 -2.00820
C -2.28167 2.42594 -2.65978
C -2.23170 .16290 -3.57777
C 1.97342 .11782 -3.60413
C .57910 .15738 -3.76063
C -.10864 1.39109 -3.50676
C -1.57338 1.37411 -3.40169
C .63088 2.49516 -2.95216
C -.10523 3.54039 -2.28859
C -4.45000 1.52094 .04437
C -4.14963 1.36749 1.42976
C -4.09920 .06056 1.94803
C -3.32834 2.35058 2.05570
C -3.81702 2.60223 -.73199
C -1.89077 4.08216 -.87750
C -2.96115 3.56435 -.10436
C -2.78624 3.48592 1.30308
C -2.38193 1.97549 3.02153
C -2.18803 .62046 3.40639
C -3.15705 -.28938 2.97364
C -2.84752 -1.69191 2.82515
C -1.60307 -2.20728 3.23098
C -1.20351 -3.41838 2.62493
C .19583 -3.78433 2.53942
C 1.13558 -2.98247 3.12372
C -.82847 .14999 3.71398
C -.58573 -1.27413 3.72395
C .74309 -1.72038 3.72601
C -1.26841 2.88325 2.93696
C 1.08414 3.21907 2.61800
C .02349 2.45850 3.20843
C .27743 1.06294 3.59428
C 1.62409 .55180 3.44580
C 1.82280 -.82223 3.56315
C -.68110 4.51959 -.27439
C -.48851 4.37651 1.11455
C -1.55049 3.84014 1.88884
C .84321 4.12567 1.57824
C 2.98032 3.28131 1.27870
C 2.40146 2.64835 2.43072
C 2.67995 1.32930 2.76168
C 3.89960 2.59422 .51079
C 4.36945 1.30899 .95507
C 3.74721 .64285 2.02447
C .41569 4.21761 -1.19748
C 1.75299 3.95931 -.73017
C 1.97559 4.07113 .65311
C 3.90919 .72703 -2.50016
C 2.69815 1.22505 -3.12266
C 2.02587 2.37852 -2.65972
C 4.40699 1.37127 -1.39183
C 3.76723 2.58286 -.91907
C 2.60732 3.10823 -1.52763
C 4.78078 -.77715 -.26027
C 4.31067 -1.46765 -1.44949
C 3.86678 -.72407 -2.54370
C 4.81997 .59677 -.22780
C 2.88843 -1.51457 2.84105
C 3.79528 -.81486 2.02825
C 4.30351 -1.50239 .89640
