92 

C -3.79849 2.24299 -.73431
C -3.47260 1.76060 -2.02486
C -3.87895 .44204 -2.34199
C -3.12556 -.34889 -3.27502
C -2.09098 .22585 -3.98234
C -1.48985 3.32617 -2.01837
C -2.32934 2.34875 -2.71795
C -1.76037 1.61832 -3.77532
C -.19301 3.54558 -2.48372
C .37929 2.74704 -3.54483
C -.37271 1.75878 -4.12428
C -1.77370 3.68445 -.63392
C -.68480 4.03197 .26750
C -2.98223 3.22860 -.07585
C -.88309 3.89799 1.65210
C -1.77575 -2.38330 -2.86152
C -.68490 -1.77882 -3.61235
C -2.98278 -1.66945 -2.74669
C -.88009 -.51231 -4.18866
C 1.77512 -1.24084 -3.51038
C .68466 -2.19545 -3.37418
C .87970 -3.33690 -2.57829
C 2.98173 -1.50551 -2.83664
C 3.12425 -2.63312 -1.96996
C 2.08995 -3.53505 -1.83706
C 1.49385 .14197 -3.87708
C 2.33359 1.22952 -3.36571
C .19835 .44180 -4.29932
C 1.76599 2.50980 -3.24826
C -.19908 -3.91916 -1.81492
C -1.49481 -3.40370 -1.85865
C -2.33539 -3.51891 -.66303
C .37122 -4.43990 -.59228
C -.38167 -4.44593 .55274
C -1.76847 -4.07052 .49868
C 1.75855 -4.06726 -.53389
C .18932 -3.94016 1.78128
C 1.48573 -3.42721 1.83092
C 2.32626 -3.52999 .63406
C 3.79352 -1.76897 1.55593
C 3.46925 -2.63328 .48249
C 3.87659 -2.23358 -.81313
C -3.47699 -2.62217 -.50107
C -3.80022 -1.74514 -1.56439
C -2.09914 -3.55278 1.80786
C -3.13216 -2.65079 1.95114
C -3.88374 -2.23677 .79903
C -.88868 -3.36485 2.55131
C -2.98829 -1.53346 2.83091
C -1.78145 -1.27827 3.50752
C -.69223 -2.23286 3.36023
C 2.97591 -1.70552 2.73895
C 1.76791 -2.41875 2.84544
C .67788 -1.82112 3.60312
C .87464 -.56163 4.19398
C -4.35848 -.90760 1.06166
C -4.57408 .00977 .00121
C -4.35577 -.44990 -1.32307
C -4.35635 1.38637 .26566
C -3.80349 -.47009 2.30466
C -3.47814 .88866 2.53280
C -3.88227 1.82260 1.54845
C -2.09532 3.35074 2.18536
C -3.12809 3.02592 1.33153
C -.20254 .39280 4.31569
C -1.49846 .09991 3.89007
C -2.33673 1.19457 3.39138
C -1.76737 2.47531 3.28875
C 1.75781 1.57225 3.80530
C .37032 1.71081 4.15588
C -.38030 2.70688 3.58800
C 2.32792 2.31373 2.75644
C 1.48985 3.30033 2.06830
C .19329 3.51656 2.53612
C 3.87493 .40906 2.35853
C 3.12031 -.39140 3.28231
C 2.08648 .17686 3.99613
C 3.79699 2.22825 .77169
C 3.47041 1.73161 2.05666
C 4.35302 -.90222 -1.06035
C 4.35364 1.38241 -.23802
C 4.56977 .00258 .01061
C 4.35079 -.47189 1.32952
C 2.09526 3.37198 -2.13486
C 3.12756 3.03572 -1.28494
C 3.88000 1.83398 -1.51569
C 3.47462 .91209 -2.51067
C 3.79832 -.44954 -2.29823
C 1.77425 3.67390 .68810
C .68583 4.03353 -.20921
C .88389 3.91505 -1.59525
C 2.98205 3.22252 .12474
