92 

C -2.43869 1.09136 -3.46332
C -2.86678 -.23144 -3.23766
C -3.98674 -.40172 -2.37565
C -4.22393 -1.64658 -1.68681
C -3.34931 -2.69545 -1.86373
C -1.10360 1.37115 -3.86525
C 1.19205 .73554 -4.02457
C -.14948 .33519 -4.04600
C -.50628 -1.03324 -3.68698
C -1.88729 -1.31683 -3.36333
C -2.17983 -2.52579 -2.70734
C -4.34932 -2.09144 .72668
C -3.43027 -3.20241 .54291
C -4.74395 -1.33674 -.36472
C -2.96375 -3.51734 -.72803
C -1.59745 -3.88800 -.90063
C -2.50959 -3.19209 1.63666
C -1.17026 -3.55058 1.48772
C -.71171 -3.96716 .17741
C 2.51071 -3.21325 -1.59353
C 1.17164 -3.57073 -1.43925
C .71351 -3.96872 -.12309
C 1.59913 -3.87310 .95364
C 2.24203 -.18562 -3.70553
C 1.93124 -1.50093 -3.30220
C .53601 -1.93180 -3.25757
C .20238 -3.04092 -2.40035
C -1.14022 -3.32452 -2.16824
C 2.89194 -2.15573 -2.50812
C -3.31141 .58316 3.09390
C -4.12948 -.02312 2.10826
C -4.00002 -1.42692 1.96069
C -2.89151 -2.12169 2.53584
C 1.14147 -3.29178 2.21301
C -.20144 -3.00611 2.44117
C -.53594 -1.88509 3.28245
C -1.93164 -1.45477 3.32076
C -2.24390 -.13415 3.70504
C -4.54500 .77213 .95819
C -4.82886 .09931 -.25621
C -2.90099 1.96031 2.98719
C -3.24392 2.69794 1.86068
C -4.08425 2.12325 .86229
C -1.58310 2.08211 3.52261
C -.61924 2.93241 2.92580
C .71747 2.65444 3.23608
C 2.18043 -2.48460 2.74048
C 1.88693 -1.26674 3.37922
C .50548 -.97971 3.69889
C .14726 .39331 4.03804
C -1.19480 .79228 4.01076
C 1.10052 1.42711 3.84192
C -3.69609 2.68688 -.40499
C -3.83572 1.94682 -1.59580
C -4.43126 .65844 -1.52170
C -2.88819 2.17843 -2.62831
C -2.54591 3.52308 -.20040
C -.15093 3.81721 -.72499
C -1.53494 3.63720 -1.16068
C -1.80282 3.06391 -2.43901
C 2.23189 3.49923 -1.25526
C .92192 3.57074 -1.70454
C -.92659 3.59380 1.64976
C -2.23646 3.51499 1.20139
C 1.79855 3.09958 2.39153
C 1.53030 3.65430 1.10499
C .14620 3.82719 .66685
C 2.54141 3.52756 .14618
C .61498 2.89100 -2.97091
C -.72144 2.60759 -3.27700
C 1.57947 2.03271 -3.55545
C 4.08100 2.11413 -.89659
C 3.24005 2.67374 -1.90303
C 2.89757 1.91961 -3.01877
C 4.82744 .10702 .25112
C 4.54299 .76207 -.97293
C 2.88467 2.21798 2.59324
C 4.42914 .68387 1.50854
C 3.83241 1.97259 1.56391
C 3.69238 2.69556 .36248
C 3.34989 -2.66531 1.89914
C 4.22360 -1.61857 1.70681
C 3.98546 -.36414 2.37756
C 2.86539 -.18253 3.23735
C 2.43591 1.14279 3.44367
C 4.34980 -2.09823 -.69997
C 3.43147 -3.20706 -.49988
C 2.96500 -3.50381 .77552
C 4.74359 -1.32741 .38039
C 3.30912 .54131 -3.10537
C 4.12808 -.05006 -2.11134
C 4.00006 -1.45178 -1.94340
