92 

C 3.56177 2.44316 -1.81478
C 2.78386 3.56762 -1.31574
C 4.38607 1.73139 -.96519
C 2.82446 3.89514 .03636
C 1.62363 4.29207 .69730
C 1.52935 3.57414 -1.99626
C .34628 3.99035 -1.37773
C .39137 4.37633 .02082
C -2.05040 4.06990 .16313
C -.83137 4.27766 .81919
C -.74557 3.83584 2.16818
C 3.75283 -.40576 -2.06320
C 2.79149 .33398 -2.88150
C 4.51381 .31134 -1.12604
C 2.75278 1.72640 -2.76167
C 1.52356 2.44829 -2.92207
C .34893 1.82022 -3.29369
C .38410 .39080 -3.58099
C 1.60165 -.32488 -3.39541
C 1.54640 -1.74785 -3.31559
C -2.07864 .37403 -3.48203
C -.87145 -.34329 -3.61517
C -2.10010 3.80540 -1.27203
C -.91239 3.55451 -1.97798
C -.90566 2.49276 -2.96032
C -2.09597 1.80356 -3.21088
C 4.73573 -.23482 .20456
C 2.51327 -2.50097 -2.51041
C 3.54506 -1.83620 -1.81854
C 3.95582 -2.40235 -.59014
C 4.44532 -1.53948 .46912
C .52470 -3.65405 -2.53746
C 1.86420 -3.62972 -1.97239
C 2.10430 -4.04054 -.63037
C 3.19918 -3.44062 .02391
C -.51735 -4.16405 -1.82614
C -.91005 -1.74296 -3.35101
C .33937 -2.43708 -3.31364
C -1.82549 -3.53163 -1.90368
C -2.04200 -2.31979 -2.66417
C 2.03898 -3.49472 2.17393
C 3.78206 -1.88803 1.69725
C 3.15112 -3.15288 1.45509
C .97454 -4.26634 1.55725
C -.31216 -4.63159 -.46152
C .96805 -4.51575 .17157
C 1.45243 -2.53003 3.06457
C 1.91999 -1.21402 3.15747
C 3.17401 -.89217 2.49144
C 3.52692 .49544 2.23695
C 4.41869 .77817 1.18076
C 4.36381 2.02315 .46647
C 2.65660 1.55452 2.70907
C 2.79854 2.83542 2.13607
C 3.58665 3.04878 .95172
C 1.68760 3.74949 2.05262
C .53664 3.47034 2.73094
C .96338 -.16109 3.48683
C 1.38296 1.21509 3.34405
C .39855 2.20936 3.41252
C .05904 -2.83988 3.15543
C -2.21856 -2.10204 2.98520
C -.87795 -1.84539 3.41152
C -.43716 -.47309 3.59042
C -1.43328 .58095 3.45815
C -.98871 1.89013 3.41717
C -1.50600 -4.38683 .23277
C -1.47708 -4.00046 1.60391
C -.23092 -3.93166 2.24599
C -2.50377 -3.12349 2.06936
C -4.05371 -1.43643 1.72512
C -3.15507 -1.02059 2.76651
C -2.78464 .30627 2.92956
C -4.62727 -.48678 .89907
C -4.43170 .91002 1.18745
C -3.49381 1.32516 2.14751
C -2.45549 -3.73127 -.68680
C -3.45997 -2.81721 -.21182
C -3.57213 -2.65787 1.18309
C -4.01496 .85810 -2.31782
C -3.22015 -.20806 -2.89888
C -3.15917 -1.50725 -2.32724
C -4.67346 .63270 -1.13066
C -4.62463 -.68375 -.52056
C -3.90211 -1.75597 -1.08966
C -3.94999 2.81840 -.26749
C -3.29819 3.08607 -1.53789
C -3.30552 2.10645 -2.52984
C -4.60151 1.62438 -.06462
C -1.70119 2.92778 2.67616
C -2.88796 2.63937 1.97684
C -3.12146 3.36726 .78374
