92 

C 2.83532 -1.42548 -2.96443
C 2.78419 -.03723 -3.19192
C 3.71528 .74362 -2.47738
C 3.45431 2.14387 -2.20485
C 2.33936 2.73909 -2.74000
C 1.69062 -2.26271 -3.22785
C -.68984 -2.48803 -3.33339
C .45742 -1.70547 -3.59613
C .30929 -.25220 -3.71221
C 1.51289 .55791 -3.62667
C 1.37065 1.93704 -3.48346
C 3.03036 3.22245 -.02179
C 1.89125 3.91684 -.61325
C 3.84390 2.43740 -.85961
C 1.63091 3.72190 -1.98494
C .27695 3.71636 -2.50011
C -.75417 4.16591 -1.73159
C -.50943 4.51878 -.34252
C .76656 4.33122 .23437
C .79069 3.99452 1.60792
C .09215 2.53366 -3.31518
C -1.08133 1.76604 -3.25391
C -.98228 .34648 -3.50782
C 4.54425 1.25988 -.37386
C 1.89911 3.25176 2.17548
C 3.01508 2.88665 1.40730
C 3.76098 1.76922 1.87191
C 4.52488 .94102 .95555
C -.04505 2.54251 3.21049
C 1.37907 2.38223 3.17252
C 1.97841 1.14711 3.45618
C 3.26406 .92732 2.89679
C -.89704 1.47484 3.44027
C -.30570 .15546 3.71385
C -3.76559 2.49342 1.21476
C -2.66014 2.68160 2.07098
C -2.28230 1.59744 2.96132
C -3.07741 .44969 2.98103
C -.38702 3.61065 2.28742
C -1.70444 4.23643 .38046
C -1.65042 3.65932 1.66859
C 2.99290 -1.50136 3.02693
C 4.41418 -.44291 1.37492
C 3.74534 -.42341 2.63641
C -1.11831 -1.02770 3.50097
C 1.11247 .01486 3.76422
C 1.67686 -1.29377 3.64468
C -2.48523 -.86325 3.18558
C 2.93747 -2.66360 2.20231
C 3.44816 -2.65760 .89050
C 4.20088 -1.48801 .45327
C 4.23817 -1.14384 -.96791
C 4.41396 .20240 -1.35661
C 3.55363 -1.97469 -1.88176
C 1.68240 -3.31770 2.53036
C 1.06527 -4.12284 1.62660
C 1.62883 -4.28171 .30118
C 2.77753 -3.51714 -.10076
C 2.86515 -3.17676 -1.45230
C -.52300 -2.28534 3.18178
C .88696 -2.40380 3.34588
C -.38424 -4.11959 1.51839
C -1.19602 -3.19953 2.28065
C .55157 -4.51614 -.56793
C .58731 -4.03198 -1.90895
C 1.76132 -3.38680 -2.34387
C -.63615 -3.62833 -2.50324
C -.69879 -4.43153 .20478
C -1.92290 -3.97224 -.39230
C -1.90376 -3.72115 -1.78080
C -4.27093 -1.11092 1.74074
C -3.17799 -1.80028 2.39916
C -2.49264 -2.89102 1.79328
C -4.60057 -1.45670 .44953
C -3.90930 -2.55502 -.19991
C -2.88466 -3.29100 .44070
C -4.77665 .91390 -.17652
C -4.51883 1.28325 1.21240
C -4.20925 .28670 2.12925
C -4.79800 -.40945 -.54466
C -2.69314 3.77046 -.57638
C -4.12226 1.86988 -1.02835
C -3.69891 2.94430 -.16999
C -2.76389 -2.74064 -2.33702
C -1.98589 -1.87724 -3.19271
C -2.14931 -.49595 -3.19491
C -3.78575 -2.20640 -1.58045
C -4.13968 -.81800 -1.75840
C -3.30456 .05886 -2.47903
C -3.32016 1.46372 -2.11659
C -2.22400 2.32392 -2.52743
C -2.04458 3.53761 -1.83657
