92 

C -2.66716 2.80574 -2.17847
C -3.41015 1.63336 -2.11127
C -4.31967 1.52227 -1.02404
C -4.85461 .23580 -.64077
C -4.55063 -.87313 -1.40153
C -3.50120 -.77281 -2.41813
C -2.84774 .42234 -2.70263
C -1.38788 2.84082 -2.85818
C -.71750 1.64454 -3.19384
C -4.50249 -1.06900 1.40288
C -4.43273 -2.27859 .61051
C -4.79683 .14727 .80520
C -4.44155 -2.17573 -.78175
C -3.46229 -2.92003 -1.55070
C -3.45481 -3.14328 1.24867
C -2.71115 -4.03089 .49679
C -2.71272 -3.90544 -.95742
C 1.38554 2.84565 -2.86174
C .71858 1.64701 -3.19564
C -1.44961 .38284 -3.10872
C -.73300 -.85007 -3.09065
C -1.43631 -2.07310 -2.75191
C -2.81338 -2.01215 -2.47751
C -3.19371 1.31641 2.27563
C -2.77724 .02026 2.79762
C -4.18603 1.34545 1.29109
C -3.46611 -1.11910 2.39328
C -2.79753 -2.39929 2.29129
C -1.43144 -2.54367 2.56167
C -.70720 -1.39586 3.10998
C -1.41924 -.16204 3.29511
C -.69125 1.00313 3.56788
C 1.46119 -2.53854 2.55800
C .73394 -1.39339 3.10825
C 1.44169 -.15696 3.29162
C .71005 1.00556 3.56605
C 2.82594 -2.38940 2.28417
C .74444 -3.61220 1.90118
C -.71223 -3.61484 1.90316
C 1.41195 -4.35332 .90364
C -1.37940 -4.35851 .90746
C -1.15494 2.32223 3.16079
C -2.29232 2.46976 2.37438
C -2.29799 3.50999 1.34626
C .00502 3.14120 2.97669
C .00230 4.13918 2.02110
C -1.17370 4.34232 1.21795
C 1.16818 2.32622 3.15778
C 1.17571 4.34621 1.21509
C 2.30312 3.51778 1.34058
C 2.30327 2.47765 2.36862
C 3.48981 -1.10684 2.38473
C 2.79779 .03003 2.79082
C 3.20833 1.32746 2.26766
C 4.19830 1.35986 1.28073
C -3.12703 3.31317 .16383
C -4.05045 2.25410 .15823
C -.72987 4.84665 -.07275
C -1.42203 4.49490 -1.21473
C -2.64098 3.73296 -1.09784
C .72712 4.84903 -.07458
C -.69469 3.97926 -2.36451
C .68952 3.98161 -2.36623
C 1.41774 4.49963 -1.21823
C 2.63960 3.74197 -1.10426
C 4.05710 2.26795 .14822
C 3.13004 3.32385 .15616
C 4.86648 .25262 -.65263
C 4.32617 1.53723 -1.03460
C 3.41379 1.64515 -2.11969
C 2.66654 2.81486 -2.18510
C 4.56480 -.85727 -1.41286
C 4.45656 -2.26290 .59951
C 4.52360 -1.05320 1.39203
C 4.81223 .16400 .79354
C 4.46176 -2.16009 -.79285
C 2.73897 -3.89584 -.96471
C 2.74136 -4.02115 .48956
C 3.48338 -3.13103 1.23991
C 3.48345 -2.90777 -1.55978
C -.66353 -4.69975 -.30364
C 1.40148 -4.14586 -1.43126
C .69438 -4.69730 -.30558
C 2.85427 .43216 -2.70986
C 1.45521 .38786 -3.11238
C .74282 -.84745 -3.09258
C 3.51260 -.76068 -2.42707
C 2.82890 -2.00231 -2.48494
C 1.45126 -2.06800 -2.75583
C .73339 -3.24182 -2.28148
C -.71307 -3.24438 -2.27945
C -1.37559 -4.15074 -1.42743
