92 

C 4.45581 1.59498 .00902
C 4.70738 .21513 .00346
C 4.51244 -.48865 -1.22315
C 4.51049 -.49848 1.22391
C 3.87223 .12360 2.30681
C 3.45542 1.48068 2.26182
C 3.92764 2.24819 1.18100
C 4.13166 -1.91029 1.21778
C 3.90404 -2.60399 -.00911
C 4.13381 -1.90066 -1.22970
C 2.90550 -3.61938 -.01421
C 3.30182 -2.13805 2.33988
C 1.10448 -2.85592 3.10345
C 2.26575 -3.10906 2.30409
C 2.09338 -3.86099 1.13166
C 1.60261 3.06277 2.52227
C 2.19122 1.84380 2.90636
C 1.34735 .82966 3.49647
C 1.86667 -.55023 3.58581
C 3.08692 -.87030 3.00132
C .94225 -1.63378 3.75812
C 2.09466 -3.85124 -1.16306
C 2.26852 -3.09049 -2.32901
C 3.30518 -2.11955 -2.35475
C 1.10810 -2.83159 -3.12713
C .75215 -4.20842 -.70724
C -1.67600 -3.51793 -.73710
C -.43228 -3.83058 -1.45359
C -.21720 -3.29630 -2.71419
C -3.81401 -2.31265 -.71848
C -2.72203 -2.82542 -1.44699
C -.22003 -3.31728 2.68517
C -.43373 -3.84187 1.41961
C .75128 -4.21430 .67160
C -2.72318 -2.83663 1.41823
C -1.67708 -3.52388 .70401
C -3.81505 -2.31840 .69270
C .94666 -1.60436 -3.77242
C 1.87121 -.52257 -3.58918
C 3.09104 -.84662 -3.00584
C 1.35201 .85627 -3.48855
C 2.19528 1.86593 -2.88903
C 1.60642 3.08196 -2.49575
C -.46570 -1.34619 -3.91416
C -2.34435 .08455 -3.59219
C -.97132 -.03826 -3.87401
C -.06560 1.08625 -3.60202
C -.64580 2.28219 -3.04381
C .20421 3.25496 -2.52187
C -2.44278 -2.21546 -2.74291
C -1.17672 -2.41211 -3.30964
C -3.10207 -1.01581 -3.10387
C 3.45874 1.49850 -2.24597
C 3.87555 .14211 -2.30161
C 2.12812 3.88041 -1.39996
C 3.23553 3.44251 -.71121
C 3.92929 2.25759 -1.15828
C 1.00053 4.44622 -.68090
C 3.23443 3.43709 .74265
C 2.12593 3.86980 1.43345
C .99936 4.44106 .71732
C -1.38500 3.82120 -.70767
C -.18429 4.07794 -1.37594
C -.18650 4.06747 1.40794
C -1.38626 3.81591 .73597
C -2.41147 3.07825 -1.42829
C -2.89796 1.30051 -3.02771
C -2.05121 2.32872 -2.61823
C -3.56178 2.71879 -.72222
C -4.42588 1.65730 1.17153
C -3.56297 2.71311 .73853
C -2.41392 3.06745 1.44927
C -4.08690 .93479 2.30800
C -2.90244 1.27676 3.03348
C -2.05543 2.30867 2.63391
C -4.08365 .95329 -2.30693
C -4.94462 .97459 .00002
C -4.42418 1.66688 -1.16510
C -4.20087 -.50990 2.30499
C -4.58880 -1.16706 1.15687
C -5.01798 -.41477 -.00584
C -4.58760 -1.15759 -1.17407
C -4.19850 -.49125 -2.31633
C -1.18012 -2.43770 3.28640
C -3.10538 -1.04033 3.08937
C -2.44556 -2.23689 2.71915
C .20032 3.23580 2.54805
C -.65047 2.25906 3.06116
C -.07057 1.05861 3.61004
C -2.34877 .05613 3.58792
C -.97623 -.06852 3.87076
C -.47027 -1.37704 3.89994
