92 

C .59774 3.72634 -2.22843
C 1.62155 2.88831 -2.63843
C 2.86071 2.98043 -1.91362
C 3.81143 1.88790 -1.91332
C 3.55779 .78198 -2.66626
C -.77704 3.40674 -2.50420
C -1.15877 2.16186 -3.01905
C -.10308 1.21687 -3.39976
C 1.26752 1.63292 -3.29388
C 2.28520 .65215 -3.37208
C -1.79036 -.64127 -3.29196
C -.41550 -.18997 -3.50955
C .64520 -1.16030 -3.46334
C 1.97709 -.70735 -3.42672
C -2.00748 -2.00156 -3.06386
C -2.51013 1.70010 -2.73892
C -3.34113 2.49302 -1.91718
C -2.83213 .29564 -2.88574
C 4.28741 -1.98655 -.29559
C 4.49075 -.72512 -.88486
C 3.94833 -.53686 -2.19132
C 3.03046 -1.45491 -2.73124
C 2.74254 -2.67842 -2.09065
C 3.47805 -2.98050 -.92359
C 1.68346 -4.40410 -.09833
C 2.87499 -3.77695 .12616
C -.92131 -2.93214 -2.89383
C .40250 -2.53433 -3.02732
C 1.42576 -3.27418 -2.28955
C 1.00833 -4.25196 -1.37034
C 4.64785 .45126 -.01657
C 4.35554 1.74962 -.56568
C 4.10818 -2.12176 1.14654
C 4.13609 -.99392 1.93690
C 4.48362 .29278 1.36583
C 3.13237 -3.13117 1.39891
C 3.11382 -.79275 2.91384
C 2.05209 -1.68391 3.07186
C 2.08788 -2.93308 2.32623
C -.31946 -3.23082 2.76338
C .85239 -3.68355 2.12368
C .68073 -4.44845 .94934
C 3.80789 1.29825 2.14460
C 3.45619 2.54222 1.58228
C 3.80165 2.77458 .20786
C 2.31067 3.19419 2.10576
C 2.93385 .63661 3.06565
C -.33298 -1.97401 3.49525
C .77091 -1.14031 3.55267
C .54838 .30803 3.62120
C 1.68644 1.18394 3.39639
C 1.45502 2.52528 3.00457
C 1.49305 4.09474 1.28805
C 1.76096 4.23725 -.11132
C 2.90711 3.57315 -.64789
C .66482 4.42926 -.96767
C .17208 4.01947 1.74883
C -.94306 4.21502 .88593
C -.66983 4.53661 -.45550
C -2.79707 3.59783 -1.17809
C -1.55811 4.07143 -1.49802
C -3.30065 1.69895 2.37438
C -2.23072 2.59014 2.31288
C -2.20179 3.55711 1.22546
C -3.18488 3.46461 .21875
C -1.65977 -1.45550 3.44346
C -1.89589 -.07038 3.44552
C -.77357 .84053 3.49824
C -.98219 2.21481 3.00688
C .12300 3.01217 2.79921
C -3.12989 .35566 2.90720
C -4.69423 .24985 1.20325
C -4.31198 1.64121 1.36644
C -4.21478 2.47714 .26258
C -4.89457 -.26906 -.05796
C -2.45134 -2.33745 2.65242
C -3.51868 -1.85818 1.88552
C -3.95124 -.53142 2.17039
C -.59744 -4.54282 .32056
C -2.80492 -3.42592 .02844
C -1.74873 -3.96254 .89604
C -1.59640 -3.41642 2.19400
C -4.41850 -1.60478 -.38082
C -3.72588 -2.40829 .54088
C -4.01697 -1.56996 -1.76291
C -3.08866 -2.46312 -2.22427
C -2.59962 -3.49731 -1.36126
C -1.32698 -3.90745 -1.91558
C -.37953 -4.49416 -1.11699
C -4.34780 1.90548 -1.07183
C -4.66140 .57602 -1.22264
C -3.96709 -.20317 -2.21369
