92 

C -1.70447 -3.96733 -1.01933
C -2.37948 -3.11850 -1.89285
C -3.64622 -2.61936 -1.44631
C -4.23178 -1.42405 -2.01813
C -3.52194 -.72210 -2.96191
C -.27973 -4.16610 -1.12698
C 1.86507 -3.42843 -1.87044
C .49037 -3.45754 -2.08809
C -.13415 -2.38739 -2.84680
C -1.58849 -2.30673 -2.83406
C -2.18240 -1.15574 -3.33853
C -4.92510 .70388 -.94306
C -4.23451 1.42729 -2.00450
C -4.92394 -.71176 -.94971
C -3.52327 .73544 -2.95467
C -1.71152 3.96550 -.98103
C -3.65126 2.61843 -1.42122
C -2.38520 3.12386 -1.86256
C -2.18458 1.17517 -3.32713
C -.13861 2.40597 -2.82337
C -1.59276 2.32241 -2.81129
C 1.85870 3.44187 -1.83707
C .48405 3.47008 -2.05446
C -.28717 4.16799 -1.08670
C -.00531 .01252 -3.47287
C -1.39312 .01178 -3.59970
C 4.08920 .01108 -2.25495
C 2.82299 .01268 -2.87946
C 2.09261 1.26987 -2.96064
C .65301 1.27451 -3.20179
C 2.68037 2.40982 -2.40453
C .65536 -1.25067 -3.21414
C 2.68490 -2.38922 -2.42783
C 2.09502 -1.24519 -2.97282
C -3.70091 1.38880 2.46936
C -4.48074 .70556 1.48593
C -4.72930 1.40165 .25580
C -4.00702 2.64396 -.06197
C -2.06310 4.01323 .41017
C -3.15465 3.26624 .89474
C -3.01798 2.65217 2.16832
C -4.47960 -.73525 1.47906
C -4.72672 -1.42038 .24240
C -2.87836 .67675 3.35774
C -2.87738 -.72069 3.35097
C -3.69882 -1.42616 2.45598
C -1.62160 1.37706 3.49623
C 3.17848 -1.40721 2.55394
C .80488 -1.47961 3.11294
C -.40236 .71507 3.53199
C -.40126 -.75558 3.52449
C -1.61931 -1.41973 3.48223
C 2.04887 -.74952 3.05478
C -.84795 4.11915 1.15571
C -.63355 3.29942 2.27411
C -1.76450 2.64202 2.81280
C 2.04791 .71813 3.06201
C .69317 2.72390 2.50626
C .80257 1.44538 3.12722
C -3.01339 -2.68531 2.14270
C -3.14872 -3.28787 .86333
C -4.00210 -2.65828 -.08738
C -2.05597 -4.02849 .37147
C -1.75989 -2.67849 2.78696
C .69748 -2.75241 2.47915
C -.62794 -3.32859 2.24167
C -.84067 -4.13885 1.11583
C 3.05318 -2.63723 1.83672
C 1.81804 -3.26624 1.71030
C 1.56728 -4.01402 .48227
C .23297 -4.34858 .16841
C 2.43167 -3.82976 -.61291
C 4.31896 .67892 2.02235
C 4.31979 -.69664 2.01559
C 4.82083 -1.42565 .86939
C 4.05373 -2.65231 .77720
C 3.69697 -3.15460 -.46319
C 1.81293 3.24702 1.74227
C 3.04936 2.61920 1.86241
C 3.17656 1.38253 2.56761
C 3.69128 3.15884 -.43275
C 2.42469 3.83266 -.57582
C 1.56037 4.00529 .52106
C .22526 4.33973 .21027
C 4.04960 2.64587 .80280
C 5.15620 .72698 -.27952
C 4.58273 1.16357 -1.54297
C 3.88336 2.34470 -1.61698
C 4.81876 1.41966 .88314
C 3.88769 -2.32891 -1.63951
C 5.15745 -.72142 -.28647
C 4.58492 -1.14715 -1.55409
