92 

C 3.99600 -2.53233 -.00774
C .69843 -3.50996 -2.39440
C 1.90406 -3.50354 -1.69463
C 2.91004 -2.62067 -2.17995
C 3.97081 -2.14304 -1.31914
C .39312 -2.48806 -3.34833
C 1.26504 -1.41079 -3.55994
C 2.58384 -1.57698 -3.07242
C .71532 -.07549 -3.75472
C 1.60511 1.07498 -3.52402
C 1.03358 2.33232 -3.36406
C -1.02494 -2.31323 -3.38204
C -1.59615 -1.05498 -3.53677
C -.70562 .09694 -3.75685
C -2.57672 1.59444 -3.07315
C -1.25593 1.43107 -3.55617
C -.38458 2.50697 -3.33483
C -3.41797 .44807 -2.77678
C -2.94830 -.86115 -2.98543
C -3.53371 -1.87245 -2.18756
C 4.30378 1.54717 -1.01147
C 4.59070 .20279 -.69388
C 4.26067 -.76561 -1.67745
C 3.42385 -.43249 -2.76567
C 2.95508 .87784 -2.96835
C 3.53750 1.88418 -2.16192
C 1.60484 3.33618 -2.48035
C 2.81369 3.10791 -1.86872
C 4.58792 -.20581 .71297
C 4.29906 -1.55013 1.02916
C 3.99717 2.52968 .02415
C 3.96656 2.14040 1.33542
C 4.25451 .76283 1.69513
C .69017 3.50849 2.39691
C 2.90247 2.61843 2.19176
C 1.89869 3.50156 1.70220
C 1.89565 3.87774 .29019
C .62713 4.16200 -.36997
C 2.98389 3.43882 -.49210
C .54359 3.95211 -1.75360
C 3.41314 .43004 2.77989
C 2.94287 -.88017 2.98053
C 3.52797 -1.88685 2.17647
C 2.80478 -3.11026 1.88023
C 1.59339 -3.33811 2.48663
C 2.57235 1.57488 3.08295
C .38071 2.48677 3.34965
C 1.25145 1.40919 3.56482
C .70047 .07410 3.75737
C 1.59061 -1.07679 3.53028
C 1.01913 -2.33391 3.36776
C 1.89522 -3.87972 -.28263
C .62393 -4.16359 .37222
C 2.98036 -3.44114 .50424
C .53487 -3.95363 1.75547
C -1.90144 -3.88076 .25909
C -.63022 -4.16106 -.39741
C -.54109 -3.94271 -1.77941
C -2.98650 -3.43704 -.52509
C -2.81074 -3.09784 -1.89871
C -1.59942 -3.32246 -2.50658
C -.70453 -3.52414 2.37291
C -2.91598 -2.63264 2.16379
C -1.91025 -3.51306 1.67338
C -1.03754 2.31251 3.37769
C -1.60979 1.05448 3.53011
C -.72054 -.09776 3.75376
C -1.27056 -1.43167 3.55077
C -.39892 -2.50797 3.33277
C -2.58948 -1.59445 3.06242
C -4.26614 -.77409 1.67265
C -3.97675 -2.14950 1.30599
C -4.00211 -2.53101 -.00749
C -4.30827 1.54297 1.02080
C -4.59602 .20057 .69521
C -1.60816 3.32192 2.49995
C -2.81716 3.09782 1.88719
C -3.54162 1.87269 2.17308
C -2.95977 .86122 2.97323
C -3.42910 -.44777 2.76266
C -1.89885 3.88030 -.26722
C -.63016 4.16001 .39448
C -.54670 3.94167 1.77683
C -2.98725 3.43711 .51263
C -3.97075 2.15008 -1.32228
C -2.90641 2.63280 -2.17592
C -1.90212 3.51267 -1.68152
C -.69353 3.52326 -2.37617
C -4.00118 2.53159 -.00891
C -4.30484 -1.54232 -1.03823
C -4.59336 -.19974 -.71392
C -4.25934 .77473 -1.69010
