92 

C -2.30618 3.47756 -1.45278
C -2.75178 2.42217 -2.27225
C -3.86515 1.66467 -1.79501
C -4.07091 .32141 -2.22812
C -3.24331 -.22623 -3.18438
C -.98586 3.95605 -1.53970
C -.01709 3.33209 -2.36151
C -.42202 2.21619 -3.19216
C -1.81062 1.80943 -3.18745
C -2.13808 .53248 -3.70235
C 1.93627 1.53981 -3.37660
C .58568 1.28095 -3.67161
C 2.33343 2.63241 -2.53532
C 1.37954 3.50286 -1.98170
C 1.69938 4.09209 -.72301
C -.72350 -2.71966 -3.49171
C -2.84481 -1.61769 -3.08414
C -1.61742 -1.73153 -3.81297
C .23006 -.08334 -4.03497
C -1.12783 -.39876 -4.10415
C .69082 -2.47296 -3.61442
C 1.18975 -1.17885 -3.84578
C -.95273 -3.53129 -2.32509
C -2.05096 -3.32354 -1.49487
C -3.06885 -2.35651 -1.91011
C -3.96604 -1.78039 -.90570
C -4.48216 -.47468 -1.09625
C -3.87408 -2.24651 .42213
C -.58916 -4.03250 .44672
C -1.90175 -3.68474 -.08314
C -2.88208 -3.23174 .80969
C -.35966 -3.89938 1.82182
C -1.34782 -3.34030 2.69124
C -2.59257 -3.01584 2.18950
C 2.58391 -3.03023 -2.17328
C 1.33857 -3.35419 -2.67342
C .34934 -3.90751 -1.80134
C 2.87292 -3.24109 -.79244
C 1.89190 -3.68836 .10255
C .57855 -4.03553 -.42565
C 2.89958 .49396 -3.21824
C 2.53342 -.87681 -3.37604
C 3.23080 -1.82093 -2.59951
C -4.09911 -1.38330 1.53007
C -4.40912 -.01300 1.33292
C -4.65815 .41650 .00206
C -3.85088 .92583 2.24816
C -2.90042 .51332 3.21889
C -2.53726 -.85749 3.38281
C -3.23685 -1.80335 2.61046
C -3.49781 2.25780 1.81685
C -3.68173 2.66126 .47044
C -4.28816 1.74124 -.43078
C -2.76270 3.60095 -.06761
C -2.32999 2.64758 2.52695
C -1.37435 3.51378 1.96978
C -1.69299 4.09848 .70865
C .64847 4.47122 .19980
C -.64135 4.47168 -.21568
C -.58483 1.29721 3.66879
C -1.93507 1.55750 3.37265
C 2.13732 .54350 3.70297
C 1.81247 1.81896 3.18248
C .42470 2.22838 3.18541
C .02196 3.34175 2.35015
C .99187 3.96023 1.52584
C -.23211 -.06607 4.03806
C -.69807 -2.45658 3.62832
C -1.19422 -1.16037 3.85379
C 1.12523 -.38385 4.10880
C 3.24114 -.21964 3.18825
C 4.06982 .32227 2.22954
C 3.86686 1.66430 1.79060
C 2.75492 2.42610 2.26467
C 2.31135 3.47883 1.44083
C .71597 -2.70663 3.50671
C 2.83976 -1.61074 3.09438
C 1.61207 -1.71895 3.82359
C 3.86715 -2.25650 -.40923
C 4.47913 -.47951 1.10112
C 3.96029 -1.78500 .91653
C 3.06211 -2.35502 1.92358
C 2.04212 -3.32162 1.51273
C .94347 -3.52365 2.34375
C 3.85072 .90836 -2.24925
C 4.65693 .40662 -.00095
C 4.40695 -.02794 -1.32986
C 4.09400 -1.39837 -1.52094
C 2.76811 3.59555 .05526
C 4.28975 1.73416 .42624
C 3.68517 2.65174 -.47889
C 3.50041 2.24300 -1.82356
