92 

C -2.75359 -.36684 3.35728
C -3.68739 .04814 2.38728
C -4.22676 -.95769 1.55392
C -4.66761 -.64700 .20758
C -4.66647 .65034 -.21765
C -2.56120 2.30545 2.38309
C -3.62828 1.42801 1.91224
C -4.23172 1.71086 .67098
C -2.22018 3.41218 1.60422
C -2.78165 3.61521 .30166
C -3.74594 2.75785 -.16784
C -1.55340 1.81545 3.33136
C -.19996 2.37292 3.31821
C -1.74557 .54380 3.87906
C .83737 1.61456 3.86643
C -2.74002 .36944 -3.35941
C -3.67804 -.04522 -2.39330
C -4.22019 .96091 -1.56211
C -2.19358 1.67276 -3.34296
C -2.55592 2.60606 -2.35068
C -3.65889 2.27022 -1.53532
C -3.62162 -1.42522 -1.91810
C -4.22996 -1.70779 -.67920
C -3.74797 -2.75493 .16166
C -2.55335 -2.30322 -2.38476
C -2.21589 -3.41013 -1.60451
C -2.78243 -3.61278 -.30402
C -.62823 .26007 -4.30598
C -1.73049 -.54163 -3.87718
C -1.54144 -1.81350 -3.32885
C .64628 -.27170 -4.30269
C .85165 -1.61311 -3.85392
C -.18830 -2.37133 -3.31018
C .20252 2.36289 -3.31723
C -.83537 1.60300 -3.86247
C 1.74698 .53134 -3.87226
C 1.55576 1.80482 -3.32868
C -.15642 3.40704 -2.34759
C -1.73786 4.09798 -.58480
C -1.52971 3.52164 -1.84940
C .87362 3.94915 -1.58444
C .63705 -4.45914 .27077
C -1.74236 -4.09564 .58673
C -.63808 -4.45987 -.24762
C .16704 -3.41250 -2.33596
C -.86582 -3.95253 -1.57525
C 1.74146 -4.09780 -.56467
C 1.53826 -3.52539 -1.83192
C .86512 -3.94771 1.59687
C -.16754 -3.40514 2.35598
C -1.53883 -3.51937 1.85224
C -2.56663 -2.60350 2.34944
C -3.66610 -2.26725 1.52951
C -2.20779 -1.67039 3.34309
C 1.54166 -1.80356 3.34410
C .18819 -2.36110 3.32697
C -.85157 -1.60101 3.86815
C 1.73149 -.53010 3.88841
C .62937 .27322 4.31416
C -.64541 -.25820 4.31227
C 3.74758 -2.75643 -.14377
C 2.78176 -3.61245 .32464
C 2.21534 -3.40546 1.62451
C 4.23009 -1.70694 .69393
C 3.62221 -1.42037 1.93213
C 2.55341 -2.29639 2.40146
C 2.20791 -1.68122 -3.32872
C 2.56640 -2.61133 -2.33196
C 3.66603 -2.27307 -1.51316
C 4.66838 -.64929 -.19634
C 4.66794 .64928 .22476
C 4.22198 .96418 1.56841
C 3.67956 -.03894 2.40295
C 2.74171 .37899 3.36768
C 2.75457 -.37810 -3.34722
C 3.68882 .03935 -2.37859
C 4.22757 -.96400 -1.54176
C 2.78523 3.61323 -.30437
C 2.22375 3.40648 -1.60655
C 2.56410 2.29715 -2.38198
C 3.74876 2.75685 .16817
C 4.23387 1.70702 -.66746
C 3.63060 1.42067 -1.90804
C -.63656 4.46166 .25384
C 1.74165 4.09898 .58055
C .64068 4.46062 -.25939
C 2.19583 1.68240 3.34689
C 3.66145 2.27364 1.53737
C 2.55876 2.61239 2.35154
C 1.53307 3.52665 1.84700
C .15982 3.41394 2.34532
C -.86981 3.95420 1.58042
