92 

C 1.40697 3.60140 2.06029
C 2.34343 3.57147 1.02325
C 3.46963 2.72028 1.20835
C 4.17299 2.15884 .07976
C 3.77318 2.48970 -1.19085
C .48275 4.18922 -.56906
C 1.89544 3.90094 -.32937
C 2.67919 3.42520 -1.39835
C -.02271 3.97985 -1.85554
C .75340 3.33872 -2.86971
C 2.08575 3.07181 -2.64729
C -.48006 4.19268 .54743
C -1.89279 3.90307 .30942
C .02533 3.99096 1.83514
C -2.67668 3.43375 1.38111
C 3.32982 -.86133 -2.67150
C 3.98156 .10793 -1.88583
C 3.69898 1.46245 -2.19743
C 2.24503 -.51309 -3.52235
C 1.80657 .82309 -3.65771
C 2.63905 1.81471 -3.09356
C 4.40039 -.25072 -.52629
C 4.55340 .79657 .39784
C 3.09507 -2.20272 -2.18308
C 3.47902 -2.58823 -.88126
C 4.12917 -1.59402 -.01402
C 2.75126 -3.65312 -.29909
C 1.88665 -2.66628 -2.76207
C 1.06540 -3.60841 -2.10701
C 1.58160 -4.18366 -.91796
C -.68128 -4.60609 -.09918
C .68084 -4.60550 .13107
C -2.29430 -2.14584 -2.94329
C -.92746 -2.44026 -3.09612
C -.36776 -3.53527 -2.31250
C -1.20100 -4.17755 -1.36187
C -.08072 2.36970 -3.54382
C .38251 1.07205 -3.82933
C -1.95933 .23652 -3.51518
C -.56824 -.03825 -3.79307
C -.07170 -1.39231 -3.62238
C 1.32220 -1.59767 -3.54238
C -2.80213 -.83635 -3.15584
C 2.54120 -3.71382 1.13578
C 3.09857 -2.75782 1.93646
C 3.99591 -1.76247 1.37419
C 3.93130 -.63757 2.25597
C 4.24494 .61180 1.78579
C 1.20069 -4.16938 1.39112
C 2.29475 -2.12843 2.95991
C .92782 -2.42176 3.11475
C .36761 -3.52130 2.33782
C -1.88668 -2.64930 2.78221
C -1.06568 -3.59547 2.13278
C -1.58204 -4.17777 .94724
C 1.42608 2.62193 3.09799
C 3.49574 1.75827 2.25529
C 2.38438 1.59552 3.11795
C 2.80318 -.81786 3.16428
C -1.32168 -1.57612 3.55592
C .07239 -1.37050 3.63463
C .56954 -.01560 3.79683
C 1.96067 .25728 3.51700
C -.38086 1.09510 3.82622
C .08285 2.39089 3.53289
C -2.24415 -.49149 3.52896
C -1.80509 .84533 3.65611
C -2.63723 1.83365 3.08598
C -2.08340 3.08783 2.63214
C -.75105 3.35600 2.85297
C -3.32928 -.84460 2.68035
C -3.98071 .12000 1.88868
C -3.69738 1.47630 2.19190
C -2.75160 -3.65083 .32516
C -4.12879 -1.59312 .02730
C -3.47913 -2.58229 .90084
C -3.09505 -2.18902 2.20035
C -4.55186 .79502 -.39931
C -4.39963 -.24673 .53137
C -4.24336 .60192 -1.78608
C -3.93020 -.65036 -2.24862
C -3.99535 -1.76991 -1.35987
C -3.09837 -2.76890 -1.91590
C -2.54141 -3.72022 -1.10931
C -1.42380 2.60355 -3.11017
C -3.49377 1.74541 -2.26233
C -2.38246 1.57730 -3.12404
C -3.77111 2.49745 1.17912
C -4.17107 2.15905 -.08947
C -3.46742 2.71359 -1.22118
C -2.34098 3.56570 -1.04123
C -1.40443 3.58927 -2.07828
