92 

C 1.17115 3.42753 -2.23866
C 2.42210 2.77381 -2.17649
C 3.31097 3.19261 -1.16905
C 4.37754 2.32889 -.72323
C 4.62747 1.15325 -1.39918
C .01273 2.76603 -2.79421
C .01267 1.41811 -3.11056
C 1.29977 .69758 -3.07351
C 2.50605 1.41845 -2.70063
C 3.66869 .69619 -2.39789
C .01154 -1.44302 -3.09993
C 1.29927 -.72287 -3.06827
C 2.50508 -1.44138 -2.69009
C 3.66819 -.71744 -2.39265
C .01046 -2.78828 -2.77346
C -2.48354 -1.44009 -2.70106
C -3.64647 .69839 -2.41387
C -2.48233 1.42002 -2.71199
C -1.27521 .69835 -3.07948
C -1.27583 -.72219 -3.07408
C -3.64722 -.71532 -2.40841
C 4.37558 -2.33780 -.70567
C 5.12389 -.00469 -.68873
C 4.62672 -1.16757 -1.39047
C 3.30863 -3.20424 -1.14519
C 1.16867 -3.44600 -2.21326
C 2.42023 -2.79269 -2.15594
C 4.37252 -2.33244 .74233
C 4.62053 -1.15707 1.41953
C 5.12080 .00059 .71134
C 4.62120 1.16383 1.41072
C 4.37431 2.33435 .72480
C 3.30362 -3.19566 1.18331
C 2.41100 -2.77654 2.18711
C 1.15959 -3.42947 2.24350
C .73675 -4.32138 -1.20650
C 1.47260 -4.38852 .01917
C 2.77227 -3.85939 .02025
C .73180 -4.31211 1.24118
C 1.16169 3.44488 2.21800
C 3.30598 3.20158 1.15943
C 2.41295 2.79065 2.16632
C 2.49364 -1.42113 2.71184
C 3.65782 -.69933 2.41406
C 3.65824 .71437 2.40871
C -.00072 -2.76714 2.79383
C -.00116 -1.41920 3.11035
C 1.28648 -.69935 3.07920
C 1.28692 .72129 3.07380
C 2.49471 1.43920 2.70099
C -.00029 1.44212 3.09935
C .00084 2.78742 2.77298
C .73459 4.32039 1.20923
C 1.47561 4.38677 -.01326
C 2.77499 3.85686 -.00847
C .73977 4.31057 -1.23840
C -.72499 4.32061 1.20596
C -2.76032 3.85854 -.02075
C -1.46064 4.38746 -.01981
C -.71972 4.31093 -1.24175
C -2.40866 2.79206 2.15565
C -1.15726 3.44519 2.21286
C -3.29708 3.20365 1.14483
C -2.49365 1.44074 2.69013
C -3.65664 .71672 2.39297
C -2.49437 -1.41941 2.70119
C -1.28833 -.69853 3.07362
C -1.28797 .72205 3.06809
C -3.65705 -.69699 2.39853
C -1.14763 3.42806 -2.24406
C -3.29199 3.19466 -1.18362
C -2.39947 2.77533 -2.18744
C -4.36113 2.33163 -.74227
C -5.10926 -.00156 -.71059
C -4.60915 1.15606 -1.41908
C -4.36547 -2.32985 .72395
C -4.61581 -1.15421 1.39989
C -5.11237 .00378 .68943
C -4.61510 1.16687 1.39072
C -4.36428 2.33716 .70570
C -1.15910 -3.42839 2.23855
C -3.29886 -3.19360 1.16948
C -2.41024 -2.77479 2.17691
C -.72283 -4.32094 -1.20961
C -2.76289 -3.85774 .00870
C -1.46359 -4.38752 .01307
C -.72769 -4.31139 1.23813
C -4.60992 -1.16489 -1.40999
C -4.36260 -2.33533 -.72407
C -3.29435 -3.20243 -1.15904
C -2.40172 -2.79146 -2.16630
C -1.15042 -3.44534 -2.21831
