92 

C 4.67224 -.33454 .37031
C 4.41640 .86490 1.06317
C 3.79668 .77558 2.33653
C 4.17123 2.04139 .27974
C 3.92989 1.93024 -1.09175
C 3.96882 .67575 -1.77044
C 4.54091 -.39911 -1.07468
C 3.36553 3.14838 .79458
C 2.70767 3.03922 2.04056
C 2.90759 1.83839 2.80714
C 1.46219 3.69966 2.19365
C 2.70131 3.75166 -.30846
C .56525 4.36675 -1.28808
C 1.44856 4.39324 -.15919
C .87107 4.43140 1.13460
C 2.73146 -.92654 -3.14062
C 2.95471 .41098 -2.78932
C 1.89874 1.37132 -3.04205
C 2.00240 2.70711 -2.43100
C 2.98539 2.95571 -1.47515
C .84346 3.53747 -2.38074
C .39343 3.08266 2.94413
C .52247 1.80569 3.46806
C 1.83998 1.24394 3.48601
C -.63493 .90171 3.50043
C -.37676 -.51828 3.61564
C -1.44071 -1.39295 3.48135
C -.85940 3.52544 2.38460
C -3.00035 2.94328 1.47598
C -2.01721 2.69283 2.43068
C -1.91145 1.35470 3.03519
C -2.96563 .39329 2.77767
C -2.73951 -.94540 3.12242
C -.88865 4.43419 -1.12677
C -1.46603 4.38950 .16682
C -.58286 4.36045 1.29553
C -2.71768 3.74501 .31275
C .97885 -1.07353 3.43711
C 2.03732 -.19187 3.46112
C -1.26321 -2.75451 2.99237
C -.00153 -3.19939 2.52478
C 1.17041 -2.38308 2.79602
C 2.38872 -2.65847 2.10797
C 2.39408 -3.67396 1.09066
C -2.47347 -3.15764 2.38600
C -2.43396 -3.95017 1.21923
C -1.19751 -4.40601 .73817
C .01000 -4.12476 1.43255
C 1.21492 -4.29646 .69867
C -4.25824 -1.77983 1.40993
C -3.41127 -2.04589 2.46581
C -3.94341 1.91792 1.08739
C -3.98020 .66019 1.75997
C -4.54941 -.41309 1.05915
C 3.44459 -1.65589 2.04561
C 3.27150 -.45788 2.77602
C 3.23056 -3.55077 -.09689
C 4.12853 -2.52316 -.19362
C 4.29396 -1.60012 .91611
C 2.43269 -3.93997 -1.25103
C 4.25230 -1.76497 -1.43181
C 3.40579 -2.02824 -2.48887
C 2.47041 -3.14265 -2.41464
C -1.21549 -4.29587 -.73218
C -.01094 -4.11902 -1.46537
C 1.19711 -4.40062 -.77217
C -2.39575 -3.67429 -1.12131
C -2.39258 -2.65482 -2.13432
C -1.17513 -2.37442 -2.82170
C -.00144 -3.18941 -2.55392
C 1.25907 -2.73974 -3.01965
C -2.04639 -.18131 -3.47606
C -.98641 -1.06138 -3.45641
C -4.29954 -1.60460 -.93712
C -4.13241 -2.53253 .16849
C -3.23234 -3.55821 .06706
C -3.27986 -.45232 -2.79180
C -3.45027 -1.65426 -2.06693
C -4.18451 2.03457 -.28382
C -3.80712 .77806 -2.34620
C -4.42702 .86076 -1.07265
C -4.68030 -.34265 -.38540
C -1.47823 3.70635 -2.18901
C -2.92002 1.84460 -2.81163
C -2.72219 3.04258 -2.03928
C -3.38064 3.14535 -.79327
C 1.43360 -1.37536 -3.50225
C .36786 -.50211 -3.63195
C .62344 .91818 -3.50907
C -1.85162 1.25524 -3.49344
C -.53519 1.81992 -3.47202
C -.40819 3.09510 -2.94211
