92 

C -4.54642 2.44435 -.33670
C -3.48587 3.42909 -.22220
C -4.92900 1.70543 .77863
C -2.88020 3.67286 1.01404
C -1.49311 3.99421 1.06647
C -2.64225 3.30000 -1.37060
C -1.29058 3.60688 -1.33385
C -.71944 4.08196 -.09757
C 2.64816 3.31091 1.33676
C 1.29712 3.61950 1.29580
C .72703 4.08157 .05412
C 1.50074 3.97928 -1.10865
C -5.30984 -.29266 -.61672
C -4.73145 .42991 -1.74138
C -5.30776 .31130 .63733
C -4.35333 1.75150 -1.59993
C -3.12406 2.19628 -2.18260
C -2.22621 1.30521 -2.79341
C -.42064 2.93171 -2.29006
C .92629 3.25626 -2.24611
C -3.16715 -2.74931 -2.09716
C -4.93371 -1.68746 -.75899
C -4.14308 -1.79548 -1.97720
C -.81760 1.67830 -2.87486
C -2.61739 -.07298 -2.94783
C -3.89577 -.46329 -2.48950
C -1.91356 -2.41387 -2.73842
C .18214 .69739 -3.16449
C -1.57943 -1.08864 -3.08798
C -2.88888 -3.65832 -.99967
C -3.49119 -3.41372 .23813
C -4.54971 -2.42716 .35540
C -4.35238 -1.73452 1.61806
C -4.72789 -.41226 1.76056
C -1.50252 -3.98202 -1.05567
C -2.64456 -3.28601 1.38436
C -1.29352 -3.59520 1.34412
C -.72616 -4.07119 .10642
C 2.63928 -3.30609 -1.33657
C 1.28780 -3.61225 -1.29207
C .71991 -4.07331 -.04896
C 1.49659 -3.97240 1.11186
C 1.90795 2.39150 -2.77352
C 1.57301 1.06193 -3.10554
C -.18872 -.72478 -3.15483
C 2.61112 .04784 -2.95519
C 2.22015 -1.32825 -2.78228
C .81144 -1.70205 -2.85515
C .41579 -2.94815 -2.25389
C -.93082 -3.27229 -2.20286
C 3.11914 -2.21228 -2.16325
C -3.15739 2.76447 2.11228
C -4.13519 1.81219 1.99486
C -3.88892 .47957 2.50661
C -3.12241 -2.18140 2.19756
C .92609 -3.24844 2.25078
C -.42015 -2.92154 2.29816
C -.81351 -1.66741 2.88396
C -2.22157 -1.29178 2.80603
C -2.61000 .08711 2.96158
C .18859 -.68819 3.17101
C -1.57006 1.10101 3.09903
C -1.90276 2.42693 2.75032
C 1.91055 -2.38530 2.77558
C 1.57869 -1.05516 3.10843
C -.17983 .73466 3.16230
C 2.61815 -.04288 2.95531
C 2.22912 1.33386 2.78348
C .82127 1.71017 2.86004
C .42633 2.95700 2.25984
C -.91982 3.28357 2.21225
C 3.12815 2.21624 2.16210
C 5.31000 -.29437 .62716
C 4.73290 .44244 1.74304
C 4.35684 1.76282 1.58538
C 5.30900 .29471 -.63404
C 3.89597 -.44049 2.50202
C 3.16352 -2.73011 2.13793
C 4.93164 -1.68679 .78643
C 4.14093 -1.77920 2.00598
C 4.72799 -.44117 -1.74846
C 4.35004 -1.76096 -1.58977
C 4.54623 -2.43897 -.31892
C 3.48585 -3.42209 -.18934
C 2.88343 -3.65147 1.05141
C 3.16309 2.73423 -2.13916
C 4.13924 1.78162 -2.00985
C 3.89075 .44330 -2.50531
C 4.55112 2.44048 .31411
C 3.49216 3.42547 .18741
C 2.88718 3.65601 -1.05183
C 4.93260 1.68780 -.79224
