42

 C     -3.1707924704     -0.8636556479     0.5059315977
C     -3.3192424216     -0.0067769113     -0.5735552692
C     -2.478211063     -0.5552791623     -1.67549594
C     -2.467443346     -2.0860651419     0.0303785824
C     -1.9828708993     -1.819713516     -1.3310569675
C     -1.562213874     -2.451095781     0.9889700045
C     -2.516679894     -0.4026494896     1.7305369007
C     -1.5590561305     -1.4065781906     2.0543899932
C     -2.1198795903     0.9641212334     1.820009298
C     -3.019903011     1.3708675933     -0.4569474885
C     -2.4864087941     1.8536359471     0.7527591422
C     -1.6345472693     0.5215898947     -2.1661593274
C     -2.0420235758     1.7014060368     -1.5050186626
C     -0.2212504655     0.2539279004     -2.4651343633
C     -0.6291785126     -2.1299321819     -1.6453829177
C     0.2157927236     -1.1326626082     -2.3552271808
C     -0.200397934     -2.8096466495     0.6894790143
C     0.200397153     -2.8096463457     -0.6894789934
C     -0.215793195     -1.1326627638     2.355227954
C     0.6291781346     -2.1299331081     1.6453836155
C     -0.7307241854     1.276873476     2.1880225308
C     0.2212502142     0.2539282337     2.4651347534
C     -1.3224553445     2.6894511918     0.4414514364
C     -1.0367587358     2.5833431783     -0.9613385111
C     -0.3000446476     2.4488401964     1.3891211278
C     0.7307238397     1.2768729222     -2.1880227116
C     0.3000445371     2.4488397093     -1.3891215915
C     2.1198793169     0.9641207277     -1.8200096552
C     1.5590552763     -1.406578401     -2.0543897818
C     1.5622129954     -2.451095836     -0.9889699359
C     2.5166795075     -0.402650106     -1.7305371749
C     1.9828711553     -1.8197143851     1.3310573917
C     2.4674433408     -2.0860661089     -0.0303787595
C     3.1707926586     -0.8636564155     -0.5059319753
C     1.6345476552     0.5215901977     2.1661600557
C     2.4782121204     -0.5552796663     1.675497009
C     3.3192434665     -0.0067773104     0.5735553475
C     1.0367589633     2.5833437695     0.9613380756
C     1.3224555706     2.6894515341     -0.441452269
C     2.4864091408     1.8536359801     -0.7527598605
C     2.0420244819     1.7014070258     1.5050191716
C     3.0199041081     1.3708679786     0.4569473349


