42

 C     -3.1884413344     -1.4099739086     0.8032059893
C     -3.3201055565     -1.0731321624     -0.5461529678
C     -3.2536485273     0.3460971118     -0.7364052706
C     -2.8893036149     -0.1755803249     1.5142578867
C     -3.0506492505     0.9433146027     0.5847261667
C     -1.619768399     -0.3299051699     2.1221084495
C     -2.029002246     -2.263687604     0.8898846361
C     -1.0993838522     -1.6879479401     1.7965738939
C     -2.2983135182     -1.7348506598     -1.3530553155
C     -1.5575411769     -2.6044921314     -0.4539031557
C     -2.2763407814     0.5782733074     -1.756479015
C     -1.603333852     -0.7317009081     -2.0651416394
C     -1.502265639     1.7273591038     -1.6928602675
C     -2.204165369     2.043297451     0.6787804496
C     -1.6671785424     2.5789302399     -0.5505764325
C     -0.6820516542     0.7759375028     2.2101672039
C     -1.0457391255     2.0188678173     1.6043075186
C     0.7265986493     0.4449235229     2.2970021376
C     0.2956494819     -1.9366328494     1.6529431335
C     1.2149124937     -0.9067935529     2.1445056389
C     -0.2053719402     -2.7239101504     -0.6471656701
C     0.7244121241     -2.6865382693     0.489812712
C     -0.1729422236     -0.7977802948     -2.243112227
C     0.4616054857     -1.9825506874     -1.7338332215
C     -0.0340558833     1.702212867     -2.0127809287
C     0.6404521127     0.4673598505     -2.2618297812
C     -0.4063123159     3.1780710102     -0.2849742556
C     0.0030124289     2.8453938819     1.0289122156
C     0.5890169118     2.6984235799     -1.1988104656
C     1.7810272255     1.3489328562     1.7904772008
C     1.3689928438     2.4235803624     0.9792921931
C     1.7795150727     2.4061918394     -0.4531191597
C     2.5695063186     -0.8385353325     1.6820892592
C     2.8934062392     0.5580768043     1.4045278884
C     2.0090345086     -2.4453628367     -0.0565005652
C     1.8427097305     -1.9877738965     -1.4294628664
C     2.9804503906     -1.6010600781     0.5577084689
C     2.0420838178     0.4176269473     -1.8879593501
C     2.5848005521     1.3732043013     -0.908944982
C     3.3643453081     0.5976061505     0.0534007053
C     2.6661739946     -0.8357687441     -1.568431771
C     3.5682071123     -0.7197056092     -0.4431834396


