42

 C     -3.6424917555     0.0896352453     0.0178108407
C     -3.3574197341     -1.2887398282     -0.0555017865
C     -2.4960178982     -1.4972328192     -1.1919296106
C     -2.9657195023     0.7336384128     -1.0849772342
C     -2.2554877762     -0.2439643839     -1.8717145727
C     -2.2708957664     1.9141640067     -0.6386670452
C     -2.9574697066     0.6143467392     1.1755275649
C     -2.2653070509     1.8357595979     0.8504565406
C     -2.487106721     -1.6151193626     1.0485597068
C     -2.2416681449     -0.4404260043     1.851961204
C     -1.4024435847     -2.3861605387     -0.8668153551
C     -1.396967105     -2.4647809566     0.6241963159
C     -0.2018367561     -2.2422738173     -1.52114446
C     -0.9309598915     0.0354076556     -2.3774229452
C     0.0339147909     -1.07392606     -2.3915853973
C     -1.0980413917     2.2815544871     -1.297002332
C     -0.4078690173     1.3485812666     -2.1944819483
C     -0.066940627     2.9525164529     -0.5363785439
C     -1.087780475     2.1325074906     1.5349919775
C     -0.062083946     2.8805416122     0.842108526
C     -0.9130682454     -0.2144048011     2.3747284462
C     -0.3910931856     1.1111392958     2.325845664
C     -0.1912556559     -2.3894559279     1.2813212085
C     0.0508343634     -1.3184302282     2.2663224801
C     1.0772099227     -2.5651905671     -0.8459930598
C     1.0826758168     -2.6391237182     0.5661614027
C     1.410666966     -0.8376885894     -2.375048124
C     2.0976937969     -1.808114789     -1.5004714423
C     1.0448566833     1.562461209     -2.0224612192
C     1.2534348729     2.5255408517     -1.0141416313
C     1.9656128915     0.4712307942     -2.131018868
C     1.2616734633     2.4060178933     1.2631038736
C     1.0596164371     1.3424153522     2.1669823547
C     2.1101747401     2.2461863382     0.1103211767
C     1.4282649214     -1.0803746787     2.2640625664
C     2.1083396607     -1.9542228827     1.2883235005
C     1.9809473896     0.2463197156     2.1547117557
C     3.0784745189     -1.1120740378     -0.7792208735
C     2.9889852603     0.3180046271     -1.1527836962
C     2.9751004658     1.1128204914     0.0477969601
C     3.0839073944     -1.1860890166     0.6361283291
C     2.9975435812     0.1970054722     1.1573397505


