42

 C     3.4017434866     -0.7704826049     -0.380934731
C     3.5593076225     0.4056567328     0.3933956634
C     2.9168926374     1.4396205665     -0.3241847924
C     2.7119166734     -0.4718043773     -1.6251459782
C     2.3544453682     0.8936048216     -1.5985036831
C     1.7054656667     -1.48845287     -1.8249061301
C     2.6460517739     -1.7614945856     0.2946249509
C     1.6256918992     -2.2898790701     -0.5841223784
C     2.7535992667     0.1924017308     1.6015776734
C     2.2649912299     -1.2027781605     1.5909640717
C     1.9919854021     2.0901069244     0.550529043
C     1.8469082466     1.247238354     1.7859422431
C     0.8696877779     2.7028853576     0.026647859
C     1.0331887495     1.3174145144     -2.0448286368
C     0.4032709676     2.4139713627     -1.3334656967
C     0.5205088412     -1.1069577705     -2.439707789
C     0.1618306767     0.3141930676     -2.5703613396
C     -0.6726936472     -1.8244611678     -2.1086921441
C     0.3584582249     -2.6908504226     -0.0550094372
C     -0.7971687748     -2.608895511     -0.9534706137
C     1.0051726739     -1.4674913511     2.066192355
C     0.1035887289     -2.3968201317     1.3502933645
C     0.5183342686     0.9934391869     2.3183818006
C     0.1709540335     -0.3783191874     2.6086395389
C     -0.3141399604     2.8472342852     0.8648718783
C     -0.5595759935     1.8686672287     1.9266570539
C     -1.0160073999     2.5285023774     -1.2678236673
C     -1.4441808136     2.9648588098     0.0593813853
C     -1.2995140779     0.4081569459     -2.4075466878
C     -1.8257853266     -0.913484091     -2.2042700353
C     -1.8747580842     1.4719181708     -1.6881271113
C     -2.1548910605     -2.3286577512     -0.4429446736
C     -2.7428494243     -1.2236484169     -1.2136371123
C     -1.2017435798     -2.0790303013     1.7757810972
C     -1.1658496651     -0.8049567598     2.484122692
C     -2.3202115962     -2.0275082108     0.8910451748
C     -1.9209060111     1.4067869828     1.759460165
C     -2.4084593372     2.0021027063     0.5214908571
C     -2.8198816549     1.1674443966     -0.554414916
C     -3.1752759191     -0.1845473946     -0.2826677487
C     -2.2311624352     0.0438151984     2.0003569846
C     -2.9789414542     -0.6994965853     1.0344074509


