42

 C     -3.7573835715     -0.0289799856     0.0112399664
C     -3.2423287818     -1.2292227975     0.658361302
C     -2.498739884     -0.7956642476     1.7552931132
C     -3.287068184     1.150151962     0.7067094479
C     -2.5520251419     0.7064943435     1.8447699511
C     -2.6172483228     1.9817973441     -0.2412608623
C     -3.2461554417     -0.0051986388     -1.324928159
C     -2.5725304993     1.235177987     -1.5350936613
C     -2.5155803644     -1.9918754417     -0.331904974
C     -2.5198080769     -1.2079197278     -1.5666683492
C     -1.2244337675     -2.5019820955     -0.1024707735
C     -1.1632724551     -1.2355126827     2.0140756652
C     -0.540850082     -2.2383269143     1.1701556455
C     -1.2466775712     1.1330573802     2.0844013701
C     -0.3960845018     -0.069440521     2.3496544573
C     -1.3385394146     2.4901593779     0.014804519
C     -0.6468218361     2.1692114595     1.268515683
C     -1.2503510199     1.2684393137     -2.0132406035
C     -0.5517781822     2.2815677967     -1.2204761999
C     -1.1825711079     -1.1833848932     -2.0667034493
C     -0.4498717429     -2.2139354581     -1.3194709347
C     -0.4978648272     0.0481486315     -2.3246458776
C     0.9141837948     -2.2280862633     -1.3012633876
C     0.8658267711     -2.2742962914     1.1780085469
C     1.5871910871     -2.6275649192     -0.0559785015
C     1.0329519661     -0.0536740644     2.2721198164
C     1.6828682604     -1.289388437     1.8644120144
C     0.7615296839     2.2387966005     1.2627128247
C     1.6391793367     1.2064665818     1.9122710492
C     0.8069655023     2.3390255291     -1.1916751791
C     1.4397629456     2.6548453798     0.0752498115
C     0.9987774516     0.0707095605     -2.2370442636
C     1.699607866     -1.1646973546     -1.9188787759
C     1.6375882648     1.2959882828     -1.8502343831
C     2.8419482638     -2.0713075689     -0.0357168383
C     2.9531616572     -1.2386440646     1.1636414287
C     2.9479159154     -1.1535785958     -1.1927453402
C     2.9093266941     1.2092074943     1.2429793029
C     2.6984497575     2.0232578969     0.0665042329
C     2.9000059079     1.2593653419     -1.1311160426
C     3.48127617     -0.0032274886     0.7864832444
C     3.4994684805     0.044040188     -0.7408448368


