42

 C     2.5046700284     1.8482813082     0.6601554922
C     2.4804093672     0.8134092264     1.5666872802
C     2.88282848     -0.4497978397     0.9042594313
C     2.8529935699     1.2449672426     -0.6601554922
C     3.0172774085     -0.184085107     -0.4959424355
C     1.9446377227     1.7413929269     -1.5666872802
C     1.3492163024     2.7050814509     0.4959424355
C     1.0518778614     2.7215016272     -0.9042594313
C     0.2573947812     2.5610214589     1.4053137741
C     1.3244907588     0.5318727322     2.3966723269
C     0.2402681475     1.4127004085     2.3559634059
C     2.0892122525     -1.5034211488     1.4053137741
C     1.103300368     -0.9144285237     2.3559634059
C     1.6680611046     -2.5209963185     0.4959424355
C     2.3466070425     -1.0576002904     -1.4053137741
C     1.8309506149     -2.2717037632     -0.9042594313
C     1.1228606696     0.8811062875     -2.3966723269
C     1.3435685196     -0.4982718735     -2.3559634059
C     -0.2573948027     2.5610214568     -1.4053137741
C     -0.2402681594     1.4127004065     -2.3559634059
C     -1.0518778842     2.7215016183     0.9042594313
C     -1.3492163251     2.7050814395     -0.4959424355
C     -1.1228606771     0.8811062781     2.3966723269
C     -1.9446377374     1.7413929105     1.5666872802
C     -0.2016300817     -1.4129790103     2.3966723269
C     -1.3435685154     -0.4982718848     2.3559634059
C     0.348323552     -3.0932485268     0.6601554922
C     -0.5357716298     -2.554802137     1.5666872802
C     0.5357716513     -2.5548021325     -1.5666872802
C     0.2016300936     -1.4129790086     -2.3966723269
C     -0.348323526     -3.0932485297     -0.6601554922
C     -1.3244907633     0.5318727211     -2.3966723269
C     -1.1033003603     -0.914428533     -2.3559634059
C     -2.5046700439     1.8482812871     -0.6601554922
C     -2.8529935804     1.2449672186     0.6601554922
C     -2.480409374     0.8134092056     -1.5666872802
C     -2.3466070337     -1.0576003102     1.4053137741
C     -1.8309505958     -2.2717037786     0.9042594313
C     -1.6680610834     -2.5209963325     -0.4959424355
C     -2.0892122398     -1.5034211663     -1.4053137741
C     -3.0172774069     -0.1840851324     0.4959424355
C     -2.8828284762     -0.449797864     -0.9042594313


