42

 C     3.3230051843     -1.5081638952     0.3301879797
C     2.5945907699     -1.7717923596     -0.885974004
C     2.669656383     -0.6665737349     -1.7463321825
C     3.6280329302     -0.0704669768     0.3008286105
C     3.3573708005     0.4327860349     -1.0002038482
C     3.0089736457     0.565844826     1.4158439133
C     2.3682023619     -1.6803974609     1.3596113793
C     2.2344111028     -0.4694511958     2.1075875168
C     1.2618233086     -2.2900837913     -0.5862482068
C     1.1274145411     -2.254009868     0.8492425941
C     0.1317772357     -1.9984202096     -1.4167671828
C     1.4849841321     -0.1576627078     -2.3794228138
C     0.2272437321     -0.8571466098     -2.3440632136
C     2.5553702057     1.5682606489     -1.1555452902
C     1.4820995325     1.2463828272     -2.0967463372
C     2.1236285252     1.6765143437     1.248310664
C     1.9059042065     2.22544552     -0.0467091402
C     0.9575767005     0.0129200259     2.4857117544
C     0.9193313816     1.4090508331     2.0538544926
C     -0.1314973489     -1.9671921372     1.4598542601
C     -0.2271279268     -0.8060467565     2.3621432098
C     -1.1270934529     -2.2720927728     -0.8000664462
C     -1.2614971291     -2.2769859232     0.6358689877
C     -2.3679597313     -1.7098805786     -1.3227791824
C     -0.9575752552     -0.0412296256     -2.4854112258
C     -2.2343348305     -0.5154499257     -2.0968807035
C     0.3010483906     1.966176358     -1.7855573565
C     0.528196528     2.5825757951     -0.4738551033
C     -0.9195294991     1.3639660588     -2.0839823814
C     -0.3013320617     2.0044674297     1.74241639
C     -0.528567024     2.5921904695     0.4176326203
C     -1.4849643046     -0.1061360539     2.382290453
C     -1.4822782084     1.2914359073     2.0691754411
C     -2.5943459072     -1.752498198     0.9242679962
C     -3.3227832127     -1.5154476356     -0.297336522
C     -2.6695610203     -0.6288495313     1.7604003709
C     -3.0090540906     0.534524057     -1.4278033356
C     -2.1238630803     1.6486932     -1.2844384887
C     -1.9062281027     2.2256724291     -0.0016495923
C     -2.555593053     1.5926339986     1.1211973235
C     -3.6280199166     -0.077501251     -0.2992225618
C     -3.3574374428     0.4539404362     0.9905711615


