42

 C     3.733028192     -0.2870919735     -0.5973265314
C     3.1758448975     -1.5177622829     -0.7882418948
C     2.571571675     -1.9716698145     0.4497729713
C     3.4918870192     0.1128935623     0.8165774924
C     2.6634830291     -0.8886237721     1.4463431897
C     3.0273966396     1.4312852788     0.7617233054
C     3.0005844903     0.6594830636     -1.4512888271
C     2.6933897209     1.7615277338     -0.6872842047
C     2.0766984107     -1.4336471114     -1.7796658328
C     1.9006514396     -0.0766519023     -2.1417047695
C     1.3315800834     -2.5381287499     0.141178335
C     0.9752782917     -2.1727228295     -1.2723011254
C     0.2967712491     -2.450056476     1.0891567793
C     1.4354224311     -0.4985930469     2.1393996642
C     0.3000992393     -1.3705407771     2.068221465
C     1.9181910831     1.8347693503     1.4966783802
C     1.0868398418     0.9167864722     2.2097171308
C     1.3816116966     2.3340932282     -0.7129065063
C     1.0158422953     2.612166301     0.629878103
C     0.5676434005     0.4717461312     -2.2040775533
C     0.3455185695     1.8004519495     -1.6045685797
C     -0.3450599974     -1.8003465789     -1.604068706
C     -0.5667945079     -0.4722859719     -2.2039809852
C     -1.0160133645     -2.6122724502     0.6305511609
C     -1.3815050816     -2.333880548     -0.7127350085
C     -1.0872591297     -0.9158802636     2.2096953691
C     -1.9182956872     -1.8336696325     1.4961158572
C     -0.3009851305     1.3715470305     2.0679428573
C     -0.2973444729     2.4503190576     1.0880338754
C     -1.4357799713     0.4995340057     2.1385180114
C     -0.9748219262     2.1725001382     -1.273135377
C     -1.3312703523     2.5382263348     0.1395425334
C     -1.9001766883     0.0760760659     -2.1425843349
C     -2.0763038056     1.432586737     -1.7805619551
C     -2.6933820504     -1.7621701581     -0.6882613594
C     -3.027517177     -1.4309503686     0.7606674681
C     -3.0000834886     -0.6599130506     -1.4524711253
C     -2.6636725391     0.889461832     1.4445275914
C     -2.5712687547     1.9702759007     0.4480420902
C     -3.1763610656     1.5174354117     -0.7903647227
C     -3.4921042291     -0.1128771997     0.8145154124
C     -3.7333352752     0.2865693732     -0.599269644


