42

 C     3.6255098682     0.0240453397     0.1405574441
C     3.1193428868     1.3327299495     -0.1908252748
C     2.5548971744     1.24497787     -1.478130299
C     3.2440684616     -0.9523479437     -0.9103531645
C     2.5429888599     -0.2153697968     -1.8517673366
C     2.5255349884     -2.0145629037     -0.2649512706
C     3.029653824     -0.3895102749     1.3390847403
C     2.4561871764     -1.6938559136     1.1511343313
C     2.2901643189     1.8138058119     0.9089635653
C     2.1882928217     0.697482106     1.8610564099
C     1.1285020797     2.5244920123     0.6083524467
C     1.2843888191     1.7612716559     -1.7610466507
C     0.6656663811     2.6047223905     -0.7958726532
C     1.2174933264     -0.5489175245     -2.2900368918
C     0.4526281274     0.6762522134     -2.3324685312
C     1.2378775601     -2.4396959631     -0.6937910789
C     0.5770316603     -1.755176667     -1.8094789931
C     1.1495949347     -1.9918649526     1.6149923118
C     0.4398912159     -2.6606229086     0.5142471222
C     0.9450023131     0.372412328     2.4123204611
C     0.426850976     -0.9990469743     2.309526653
C     -0.0763024289     2.3899998286     1.4317713183
C     -0.200042673     1.2660298658     2.2752869941
C     -0.7328803296     2.677051491     -0.7883879209
C     -1.2060677895     2.7235918407     0.6042965818
C     -0.9924420749     0.6929874205     -2.2471019945
C     -1.6023521606     1.8350236997     -1.5612422565
C     -0.8399392801     -1.7726781476     -1.8506410974
C     -1.6411881353     -0.5846754974     -2.1739345206
C     -0.9396940074     -2.6374326132     0.4627735968
C     -1.5734072805     -2.4652487854     -0.8198855908
C     -1.0325838754     -0.9315669413     2.235386196
C     -1.4310693766     0.4723860853     2.2797245652
C     -1.7351191959     -1.8595432225     1.4417971188
C     -2.3892201177     2.0244297185     0.6570639584
C     -2.7574369794     1.6048073761     -0.7310089187
C     -2.5702359969     0.8876541623     1.5306385756
C     -2.9294197183     -0.7155717876     -1.4792852421
C     -2.8353346751     -1.8507160944     -0.6429493983
C     -2.9363700448     -1.4268006623     0.7620149152
C     -3.3602412798     0.3672562916     -0.6517059475
C     -3.3202213543     -0.0882048824     0.7838767261


