42

 C     -3.3411321884     0.2600621033     -0.5632180787
C     -3.1639565022     -0.9952453847     0.1146988879
C     -2.4960256132     -1.8518319829     -0.7792050133
C     -2.5925299843     0.2534885149     -1.8211802478
C     -2.0985364748     -1.0384022297     -1.972307738
C     -1.6854413048     1.3742114383     -1.8027452303
C     -2.8855075952     1.3303605547     0.2141280624
C     -2.0031745779     2.1586186821     -0.5891604177
C     -2.5589595795     -0.6969846046     1.4052249641
C     -2.4123879016     0.7953715807     1.4848687528
C     -1.5058813545     -1.4781979515     1.8456062841
C     -1.3670183207     -2.6009952477     -0.3872939212
C     -0.9703261436     -2.5616125063     0.9888763127
C     -0.7259972987     -1.2890294763     -2.2455189038
C     -0.3155622727     -2.4341450154     -1.412445409
C     -0.3226244018     1.2028972045     -2.2219866826
C     0.1707411584     -0.1801002468     -2.470682242
C     0.6244176384     2.1878600829     -1.6876445385
C     -0.9835372435     2.843589278     0.0679186603
C     0.2697652317     2.9912902112     -0.5858155251
C     -1.2991659331     1.3759817702     2.0859116751
C     -0.6932326577     2.5209118165     1.4728248132
C     -0.3303440625     -0.8627607882     2.5320018535
C     -0.189786779     0.5305668994     2.5883588717
C     0.4013621272     -2.712174878     1.2983606991
C     0.8141242767     -1.6259066593     2.2338080711
C     1.0237135031     -2.6048107717     -1.0744798956
C     1.3857895539     -2.8358506467     0.3262013022
C     1.5828625581     -0.4772728605     -2.2449819277
C     1.9687319016     -1.6643346184     -1.5972119298
C     2.0221734808     1.8237796729     -1.481556539
C     2.4717558496     0.5740607358     -1.7465128749
C     1.3481073947     2.8586406148     0.4503684815
C     0.7148543404     2.4389038676     1.6505562215
C     1.0698554063     1.1576705348     2.2510062643
C     2.3941988362     2.1416460534     -0.0649223377
C     2.0437032505     -1.0617189925     1.8022874665
C     2.4547146889     -1.9064547301     0.6747476627
C     2.9235313918     -1.3105460787     -0.4956915255
C     3.1797470314     0.0551063156     -0.5336768897
C     2.1872495723     0.3847590718     1.7309028868
C     2.8897269974     0.9285996665     0.559583674


