42

 C     3.2825895132     -1.3769028093     -0.1222336209
C     3.4139028837     -0.2918372839     -0.9352816393
C     3.2082530792     0.9207118956     -0.1593880069
C     2.8771493511     -0.9017412633     1.2336568972
C     2.8933039594     0.5424792625     1.2204678048
C     1.7050670095     -1.5874851476     1.5709698544
C     2.2160334673     -2.2150826255     -0.6384086651
C     1.3947606172     -2.5529081678     0.4543634757
C     2.3482726825     -0.3546302705     -1.9719303268
C     1.6103213192     -1.5822873898     -1.8018807457
C     2.320130276     1.7417697648     -0.8803984995
C     1.6731998924     0.8679937481     -1.9471570177
C     1.4949322065     2.6176559558     -0.1590670644
C     1.834221527     1.2388316731     1.8505312465
C     1.3423570508     2.4204950649     1.2595615299
C     0.5596018887     -0.8950739136     2.1800715272
C     0.6381501573     0.5092281499     2.3447238336
C     -0.758550479     -1.4653832844     2.0070724865
C     0.0775341568     -2.8765358596     0.1944482865
C     -0.9415171988     -2.6647534231     1.2178845813
C     0.1817568709     -1.590298745     -1.93312814
C     -0.5145789345     -2.5449548551     -1.0948083792
C     0.2406629983     0.9260488362     -2.1665141884
C     -0.5137276293     -0.3228457926     -2.2593405532
C     0.2077107715     2.9382150827     -0.6935007423
C     -0.4183002241     2.1477929279     -1.6846563068
C     -0.0864671832     2.5427113327     1.5552398641
C     -0.5523700072     1.3530725458     2.1817774764
C     -0.7541095629     3.0586923129     0.428235797
C     -1.9716796236     -0.6327533225     1.8964499502
C     -1.8486596874     0.8019133182     1.8264821251
C     -2.1810153629     -2.5594047295     0.5868522767
C     -1.9168009582     -2.4121669142     -0.8338751331
C     -2.8608140952     -1.3518259832     1.0213364464
C     -1.9631117255     -0.2637184188     -1.9984225466
C     -2.6292897645     -1.3076838359     -1.3190997213
C     -3.3512459382     -0.6920951655     -0.1310771154
C     -1.8358253201     2.1178524719     -1.3598151631
C     -1.9901116305     2.5558432258     0.048686534
C     -2.6210942693     1.493730608     0.7750162174
C     -2.5601753232     0.9742071661     -1.5233407816
C     -3.250468761     0.6731268581     -0.2405068533


