42

 C     -2.9862241327     1.1326008032     -1.2984033302
C     -3.2146069775     1.0208315742     0.1422648334
C     -3.3337745915     -0.3365844403     0.4461939323
C     -2.7443749812     -0.2093748915     -1.8312711717
C     -3.0534980697     -1.1064458026     -0.8187600922
C     -1.408105486     -0.2378761424     -2.4131546144
C     -1.8391527579     1.8737942198     -1.5085295184
C     -0.8679416398     1.0998205635     -2.3027818511
C     -2.2227200003     1.8427426324     0.8220004764
C     -1.3947997975     2.4676930869     -0.250698727
C     -1.5625777764     1.3452487047     1.943920912
C     -2.548932789     -0.9347841847     1.4877923313
C     -1.7396548294     -0.0804033816     2.3154325754
C     -2.1560593426     -2.1558133686     -0.4866265618
C     -1.9291181204     -2.1244416117     0.9769486839
C     -0.5243803033     -1.3537524508     -2.1654872578
C     -0.9306192629     -2.3226325828     -1.1396746143
C     0.8679408747     -1.0997108147     -2.3028300654
C     0.524377256     1.3538541992     -2.1654266583
C     1.4081028292     0.2379870865     -2.4131426713
C     -0.0558046007     2.6933643576     -0.0789407725
C     0.9306181101     2.3226872888     -1.1395678058
C     -0.150552279     1.6864842197     2.1802169665
C     0.5806488175     2.4425071601     1.2232320648
C     -0.4877094584     -0.5517662913     2.7564665746
C     0.4877110611     0.5516386006     2.7564913689
C     -0.5806486332     -2.442563556     1.2231194934
C     0.0558045844     -2.693359451     -0.0790643182
C     0.1505533869     -1.6865850497     2.1801401886
C     1.8391530291     -1.8737232755     -1.5086149379
C     1.3947997698     -2.4676808191     -0.2508117429
C     2.7443758134     0.2094590735     -1.8312614697
C     2.9862258951     -1.1325421129     -1.2984562851
C     2.1560566263     2.1558347082     -0.4865272158
C     1.9291184844     2.1243963157     0.9770458453
C     3.0534967303     1.1064814951     -0.818709437
C     1.739656517     0.080296329     2.3154373885
C     1.5625786607     -1.3453384663     1.9438594258
C     2.22272089     -1.8427813047     0.8219159882
C     3.2146079344     -1.0208392754     0.1422180339
C     2.5489332197     0.9347149592     1.4878344513
C     3.3337753394     0.3365628959     0.4462095841


