82 

C -3.203880 0.722810 -2.645370
C -3.641950 1.455290 -1.514520
C -4.284070 0.721450 -0.487300
C -4.266220 1.174600 0.901050
C -3.558180 2.308800 1.237110
C -2.056520 1.162470 -3.431240
C -1.424980 2.336880 -3.125770
C -1.875590 3.130430 -1.985940
C -2.938130 2.694070 -1.162780
C -2.884310 3.078570 0.202850
C -1.275140 0.014290 -3.801440
C 0.134000 0.011580 -3.706370
C 0.800530 -1.250030 -3.418530
C -3.426910 0.000770 2.894690
C -2.621970 1.167680 3.205770
C -4.228590 0.004990 1.758930
C -2.709660 2.309330 2.412830
C -1.528300 3.043980 2.102190
C -1.337590 0.725850 3.643660
C -0.169690 1.440230 3.355650
C -0.265530 2.651550 2.564970
C 1.866240 3.721360 -0.342200
C 0.769110 3.760970 0.540790
C 0.914980 3.141690 1.847260
C 2.154970 2.599940 2.197660
C -1.686760 3.593380 0.759000
C -0.734370 3.776540 -1.441560
C -0.568230 3.890750 -0.040360
C -3.565700 -2.298460 1.224850
C -2.717020 -2.307770 2.400090
C -4.269950 -1.160150 0.895010
C -2.625670 -1.170670 3.199240
C -1.339790 -0.736110 3.639190
C -1.538680 -3.045460 2.084910
C -0.274640 -2.659980 2.548950
C -0.174590 -1.453560 3.346620
C 2.248110 1.385660 3.003030
C 1.095740 0.715770 3.420770
C 1.093330 -0.734660 3.416120
C 2.243070 -1.406850 2.994070
C -1.887470 -3.110680 -2.003850
C -2.947690 -2.674480 -1.177430
C -2.895040 -3.065770 0.186260
C -1.699240 -3.587750 0.738870
C -0.582370 -3.885460 -0.062980
C -0.748520 -3.763860 -1.463620
C 1.645760 -3.422620 -1.776320
C 0.387600 -3.424640 -2.302130
C 2.145410 -2.615870 2.181110
C 0.903580 -3.150870 1.827770
C 0.755440 -3.763310 0.518070
C 1.852480 -3.723350 -0.364990
C -3.646960 -1.431160 -1.522250
C -4.286480 -0.700270 -0.491000
C -1.434040 -2.311980 -3.139350
C -2.060800 -1.133200 -3.437820
C -3.206530 -0.694140 -2.649200
C -0.002160 -2.394110 -3.224860
C 4.055780 -1.435420 1.521320
C 3.266010 -2.634110 1.291060
C 3.095440 -3.126160 0.002660
C 4.577470 -0.732820 0.441510
C 4.060970 1.415380 1.530370
C 3.430610 0.683950 2.612180
C 3.428200 -0.707800 2.607720
C 4.579920 0.717020 0.446160
C 3.577600 2.333340 -1.114030
C 3.107060 3.118050 0.022000
C 3.275800 2.618510 1.307690
C 4.255110 1.154820 -0.905380
C 0.400750 3.438240 -2.281490
C 2.592720 2.410230 -2.159620
C 1.658690 3.428960 -1.755220
C 3.568710 -2.336590 -1.128620
C 2.583540 -2.404540 -2.174670
C 2.153030 -1.255230 -2.869680
C 4.250780 -1.161830 -0.912590
C 3.925970 -0.000620 -1.705200
C 2.841440 0.003730 -2.608860
C 2.157990 1.266540 -2.861790
C 0.805770 1.269020 -3.411010
C 0.007270 2.414690 -3.210530
