82 

C 3.235400 -0.942960 2.522220
C 3.925010 -0.337750 1.436480
C 3.854620 1.100880 1.309790
C 4.094820 -1.094900 0.265650
C 3.500970 -2.387310 0.132500
C 2.692710 -2.926590 1.152510
C 2.662730 -2.219760 2.393100
C 4.091590 -0.451540 -1.042260
C 3.918750 0.937370 -1.156060
C 3.851600 1.714750 0.061610
C 3.224190 1.426730 -2.295390
C 2.077320 -3.306790 -1.630140
C 3.178170 -2.574160 -1.272270
C 3.495900 -1.346950 -1.982690
C 2.682650 -0.869570 -3.029330
C 2.649400 0.544480 -3.226150
C 0.415810 -3.766570 1.656710
C 1.518300 -3.716770 0.772650
C 1.233160 -3.892350 -0.605350
C 2.365930 2.620550 -2.196400
C 2.226800 3.326250 -0.949900
C 3.006010 2.910240 0.143630
C 0.966510 3.933840 -0.681220
C 0.386740 0.466050 -4.142420
C 1.468580 1.201150 -3.760530
C 1.273070 2.452320 -3.048250
C -0.054750 2.893730 -2.678250
C -0.159290 3.703720 -1.556890
C 1.227740 -2.853840 -2.715940
C 1.507810 -1.654610 -3.418840
C 0.401630 -0.986390 -3.992580
C 0.473310 4.056530 0.635650
C 1.208020 3.533430 1.739180
C 2.503170 3.004400 1.475130
C 0.478160 2.976130 2.829450
C -0.986950 3.948540 0.582610
C -2.919750 2.698820 1.339100
C -1.718860 3.345080 1.653870
C -0.982020 2.865120 2.782170
C -2.504740 2.940660 -1.087900
C -1.364690 3.729890 -0.747170
C -3.353780 2.565480 -0.031520
C -2.444060 2.113420 -2.290790
C -0.964200 0.943590 -3.869580
C -1.215710 2.078970 -3.081010
C -3.324680 1.014370 -2.370130
C 0.975870 1.858950 3.533500
C 2.236350 1.278980 3.210620
C 3.010810 1.893080 2.210700
C 2.378950 -0.138520 3.411340
C -0.146800 1.022050 3.889940
C -0.039600 -0.360140 3.932100
C 1.289180 -0.918670 3.802220
C 0.404190 -2.999180 2.899230
C 1.485530 -2.245360 3.244240
C -3.348530 1.530110 2.071290
C -2.495330 0.923220 3.009330
C -1.355120 1.677260 3.421710
C -2.431740 -0.534660 3.087530
C -1.200190 -1.179240 3.537080
C -0.947200 -2.495590 3.117080
C -4.179140 0.745660 1.190350
C -4.162780 -0.630250 1.287320
C -3.314020 -1.269910 2.268700
C -4.150230 -0.828460 -1.166160
C -4.168560 0.624860 -1.261430
C -4.182420 1.387020 -0.112130
C -4.147380 -1.440970 0.077350
C -1.781580 -0.224400 -3.771030
C -3.306520 -1.335740 -2.203960
C -2.936540 -0.195320 -3.034730
C -0.102620 -3.220660 -2.395320
C -3.300320 -2.571050 0.304500
C -2.404880 -3.040980 -0.674840
C -2.408190 -2.396780 -1.983230
C -1.205320 -2.460160 -2.828700
C -0.929900 -1.404330 -3.733040
C -2.925120 -2.533530 1.713490
C -1.766950 -3.131920 2.134600
C -0.917470 -3.819090 1.172620
C -1.198530 -3.746870 -0.214520
C -0.099210 -3.864920 -1.086150
